REMARK  Name = ZINC000003163158
REMARK                            x       y       z     vdW  Elec       q    Type
REMARK                         _______ _______ _______ _____ _____    ______ ____
ROOT
ATOM      1  C   LIG    1       -3.734   1.664   0.029  0.00  0.00    +0.150 C 
ATOM      2  C   LIG    1       -4.103   2.015   1.484  0.00  0.00    -0.280 C 
ATOM      3  S   LIG    1       -5.932   1.832   1.498  0.00  0.00    +2.380 S 
ATOM      4  C   LIG    1       -5.936   0.420   0.321  0.00  0.00    -0.340 C 
ATOM      5  O   LIG    1       -6.534   2.967   0.891  0.00  0.00    -0.940 OA
ATOM      6  O   LIG    1       -6.363   1.393   2.779  0.00  0.00    -0.940 OA
ATOM      7  C   LIG    1       -4.771   0.760  -0.626  0.00  0.00    +0.190 C 
ENDROOT
BRANCH   1   8
ATOM      8  N   LIG    1       -2.433   0.981   0.019  0.00  0.00    -0.640 NA
ATOM      9  H   LIG    1       -2.361   0.351  -0.766  0.00  0.00    +0.370 HD
BRANCH   8  10
ATOM     10  C   LIG    1       -1.330   1.951   0.019  0.00  0.00    +0.080 C 
BRANCH  10  12
ATOM     11  O   LIG    1        0.002  -0.004   0.002  0.00  0.00    -0.680 OA
ATOM     12  C   LIG    1       -0.015   1.215   0.009  0.00  0.00    +0.490 C 
ATOM     13  O   LIG    1        1.033   1.839   0.002  0.00  0.00    -0.710 OA
ENDBRANCH  10  12
ENDBRANCH   8  10
ENDBRANCH   1   8
BRANCH   7  14
ATOM     14  O   LIG    1       -4.135  -0.453  -1.033  0.00  0.00    -0.530 OA
ATOM     15  H   LIG    1       -4.713  -1.056  -1.520  0.00  0.00    +0.380 HD
ENDBRANCH   7  14
TORSDOF 4
