REMARK  Name = ZINC000002539827
REMARK                            x       y       z     vdW  Elec       q    Type
REMARK                         _______ _______ _______ _____ _____    ______ ____
ROOT
ATOM      1  C   LIG    1        0.739  -2.027  -1.265  0.00  0.00    +0.200 C 
ATOM      2  C   LIG    1        1.442  -2.530  -2.535  0.00  0.00    +0.250 C 
ATOM      3  N   LIG    1        0.655  -2.099  -3.700  0.00  0.00    -0.720 N 
ATOM      4  H   LIG    1        1.093  -1.706  -4.471  0.00  0.00    +0.390 HD
ATOM      5  C   LIG    1       -0.721  -2.263  -3.681  0.00  0.00    +0.410 A 
ATOM      6  C   LIG    1       -1.375  -2.483  -2.477  0.00  0.00    -0.180 A 
ATOM      7  C   LIG    1       -2.764  -2.643  -2.476  0.00  0.00    +0.520 A 
ATOM      8  N   LIG    1       -3.421  -2.578  -3.655  0.00  0.00    -0.710 NA
ATOM      9  C   LIG    1       -2.734  -2.363  -4.810  0.00  0.00    +0.580 A 
ATOM     10  O   LIG    1       -3.370  -2.836  -1.433  0.00  0.00    -0.640 OA
ATOM     11  N   LIG    1       -1.427  -2.211  -4.817  0.00  0.00    -0.680 NA
ATOM     12  N   LIG    1       -0.639  -2.543  -1.271  0.00  0.00    -0.740 N 
ATOM     13  H   LIG    1       -1.034  -2.917  -0.468  0.00  0.00    +0.390 HD
ENDROOT
BRANCH   9  14
ATOM     14  N   LIG    1       -3.421  -2.302  -5.996  0.00  0.00    -0.840 N 
ATOM     15  H   LIG    1       -2.943  -2.149  -6.826  0.00  0.00    +0.390 HD
ATOM     16  H   LIG    1       -4.385  -2.412  -6.004  0.00  0.00    +0.400 HD
ENDBRANCH   9  14
BRANCH   1  17
ATOM     17  C   LIG    1        0.718  -0.497  -1.257  0.00  0.00    +0.150 C 
BRANCH  17  19
ATOM     18  C   LIG    1       -0.019   1.526   0.010  0.00  0.00    +0.000 C 
ATOM     19  C   LIG    1        0.002  -0.004   0.002  0.00  0.00    +0.180 C 
BRANCH  19  20
ATOM     20  O   LIG    1        0.693  -0.477   1.160  0.00  0.00    -0.560 OA
ATOM     21  H   LIG    1        1.611  -0.180   1.219  0.00  0.00    +0.370 HD
ENDBRANCH  19  20
ENDBRANCH  17  19
BRANCH  17  22
ATOM     22  O   LIG    1        0.027  -0.024  -2.414  0.00  0.00    -0.550 OA
ATOM     23  H   LIG    1       -0.891  -0.322  -2.473  0.00  0.00    +0.380 HD
ENDBRANCH  17  22
ENDBRANCH   1  17
TORSDOF 5
