REMARK  Name = ZINC000003830726
REMARK                            x       y       z     vdW  Elec       q    Type
REMARK                         _______ _______ _______ _____ _____    ______ ____
ROOT
ATOM      1  C   LIG    1       -0.641   1.571  -0.433  0.00  0.00    +0.060 C 
ATOM      2  C   LIG    1       -0.410   0.061  -0.340  0.00  0.00    +0.120 C 
ATOM      3  O   LIG    1       -1.642  -0.602  -0.010  0.00  0.00    -0.360 OA
ATOM      4  C   LIG    1       -1.302  -1.734   0.819  0.00  0.00    +0.440 C 
ATOM      5  C   LIG    1       -0.187  -1.184   1.744  0.00  0.00    +0.170 C 
ATOM      6  C   LIG    1        0.595  -0.246   0.787  0.00  0.00    +0.110 C 
ENDROOT
BRANCH   4   7
ATOM      7  N   LIG    1       -0.799  -2.840   0.000  0.00  0.00    -0.540 N 
ATOM      8  C   LIG    1       -0.539  -2.637  -1.330  0.00  0.00    +0.250 A 
ATOM      9  C   LIG    1       -0.075  -3.657  -2.084  0.00  0.00    -0.110 A 
ATOM     10  C   LIG    1        0.133  -4.921  -1.479  0.00  0.00    +0.510 A 
ATOM     11  N   LIG    1       -0.135  -5.080  -0.167  0.00  0.00    -0.680 NA
ATOM     12  O   LIG    1        0.551  -5.856  -2.138  0.00  0.00    -0.590 OA
ATOM     13  F   LIG    1        0.187  -3.474  -3.397  0.00  0.00    -0.150 F 
ATOM     14  C   LIG    1       -0.592  -4.045   0.562  0.00  0.00    +0.660 A 
ATOM     15  O   LIG    1       -0.829  -4.203   1.744  0.00  0.00    -0.590 OA
ENDBRANCH   4   7
BRANCH   5  16
ATOM     16  O   LIG    1        0.650  -2.241   2.217  0.00  0.00    -0.500 OA
ATOM     17  H   LIG    1        1.364  -1.946   2.800  0.00  0.00    +0.370 HD
ENDBRANCH   5  16
BRANCH   6  18
ATOM     18  O   LIG    1        1.749  -0.911   0.268  0.00  0.00    -0.530 OA
ATOM     19  H   LIG    1        2.276  -0.370  -0.337  0.00  0.00    +0.370 HD
ENDBRANCH   6  18
TORSDOF 3
