REMARK  Name = ZINC000004228257
REMARK                            x       y       z     vdW  Elec       q    Type
REMARK                         _______ _______ _______ _____ _____    ______ ____
ROOT
ATOM      1  C   LIG    1        0.849  -2.021  -1.205  0.00  0.00    +0.210 C 
ATOM      2  C   LIG    1        1.552  -2.525  -2.474  0.00  0.00    +0.260 C 
ATOM      3  N   LIG    1        0.706  -2.201  -3.631  0.00  0.00    -0.730 N 
ATOM      4  H   LIG    1        1.094  -1.810  -4.430  0.00  0.00    +0.390 HD
ATOM      5  C   LIG    1       -0.654  -2.461  -3.565  0.00  0.00    +0.390 A 
ATOM      6  C   LIG    1       -1.257  -2.676  -2.334  0.00  0.00    -0.160 A 
ATOM      7  C   LIG    1       -2.631  -2.934  -2.287  0.00  0.00    +0.520 A 
ATOM      8  N   LIG    1       -3.322  -2.966  -3.447  0.00  0.00    -0.710 NA
ATOM      9  C   LIG    1       -2.684  -2.750  -4.629  0.00  0.00    +0.580 A 
ATOM     10  O   LIG    1       -3.194  -3.127  -1.219  0.00  0.00    -0.640 OA
ATOM     11  N   LIG    1       -1.392  -2.507  -4.681  0.00  0.00    -0.680 NA
ATOM     12  N   LIG    1       -0.488  -2.634  -1.150  0.00  0.00    -0.730 N 
ATOM     13  H   LIG    1       -0.833  -3.000  -0.321  0.00  0.00    +0.390 HD
ENDROOT
BRANCH   9  14
ATOM     14  N   LIG    1       -3.405  -2.788  -5.796  0.00  0.00    -0.840 N 
ATOM     15  H   LIG    1       -2.961  -2.637  -6.645  0.00  0.00    +0.390 HD
ATOM     16  H   LIG    1       -4.358  -2.967  -5.771  0.00  0.00    +0.400 HD
ENDBRANCH   9  14
BRANCH   1  17
ATOM     17  C   LIG    1        0.718  -0.497  -1.257  0.00  0.00    +0.180 C 
BRANCH  17  19
ATOM     18  C   LIG    1       -0.019   1.526   0.010  0.00  0.00    +0.000 C 
ATOM     19  C   LIG    1        0.002  -0.004   0.002  0.00  0.00    +0.190 C 
BRANCH  19  20
ATOM     20  O   LIG    1        0.693  -0.477   1.160  0.00  0.00    -0.560 OA
ATOM     21  H   LIG    1        1.611  -0.180   1.219  0.00  0.00    +0.360 HD
ENDBRANCH  19  20
ENDBRANCH  17  19
BRANCH  17  22
ATOM     22  O   LIG    1        2.019   0.090  -1.326  0.00  0.00    -0.560 OA
ATOM     23  H   LIG    1        2.587  -0.122  -0.573  0.00  0.00    +0.360 HD
ENDBRANCH  17  22
ENDBRANCH   1  17
TORSDOF 5
