REMARK  Name = ZINC000040457307
REMARK                            x       y       z     vdW  Elec       q    Type
REMARK                         _______ _______ _______ _____ _____    ______ ____
ROOT
ATOM      1  C   LIG    1       -2.241  -0.182  -1.019  0.00  0.00    +0.360 A 
ATOM      2  N   LIG    1       -1.825   0.588  -2.017  0.00  0.00    -0.310 NA
ATOM      3  N   LIG    1       -2.633   0.894  -2.975  0.00  0.00    -0.230 NA
ATOM      4  C   LIG    1       -3.881   0.439  -2.963  0.00  0.00    +0.280 A 
ATOM      5  N   LIG    1       -4.296  -0.332  -1.965  0.00  0.00    -0.220 NA
ATOM      6  N   LIG    1       -3.487  -0.642  -1.009  0.00  0.00    -0.250 NA
ENDROOT
BRANCH   4   7
ATOM      7  N   LIG    1       -4.750   0.768  -3.994  0.00  0.00    -0.690 N 
ATOM      8  H   LIG    1       -4.446   1.331  -4.724  0.00  0.00    +0.400 HD
BRANCH   7   9
ATOM      9  C   LIG    1       -6.126   0.266  -3.981  0.00  0.00    +0.430 C 
ATOM     10  C   LIG    1       -6.534  -0.141  -5.398  0.00  0.00    +0.010 C 
BRANCH   9  11
ATOM     11  O   LIG    1       -7.002   1.291  -3.508  0.00  0.00    -0.590 OA
ATOM     12  H   LIG    1       -7.932   1.028  -3.473  0.00  0.00    +0.380 HD
ENDBRANCH   9  11
ENDBRANCH   7   9
ENDBRANCH   4   7
BRANCH   1  13
ATOM     13  N   LIG    1       -1.372  -0.511   0.012  0.00  0.00    -0.650 NA
BRANCH  13  15
ATOM     14  C   LIG    1       -0.019   1.526   0.010  0.00  0.00    -0.030 C 
ATOM     15  C   LIG    1        0.002  -0.004   0.002  0.00  0.00    +0.310 C 
BRANCH  15  16
ATOM     16  O   LIG    1        0.693  -0.477   1.160  0.00  0.00    -0.560 OA
ATOM     17  H   LIG    1        1.611  -0.180   1.219  0.00  0.00    +0.360 HD
ENDBRANCH  15  16
ENDBRANCH  13  15
ENDBRANCH   1  13
TORSDOF 6
