REMARK  Name = ZINC000040457309
REMARK                            x       y       z     vdW  Elec       q    Type
REMARK                         _______ _______ _______ _____ _____    ______ ____
ROOT
ATOM      1  C   LIG    1        2.037  -0.137   1.398  0.00  0.00    +0.360 A 
ATOM      2  N   LIG    1        2.662   0.644   0.524  0.00  0.00    -0.310 NA
ATOM      3  N   LIG    1        3.894   0.972   0.719  0.00  0.00    -0.230 NA
ATOM      4  C   LIG    1        4.538   0.527   1.792  0.00  0.00    +0.280 A 
ATOM      5  N   LIG    1        3.913  -0.254   2.665  0.00  0.00    -0.220 NA
ATOM      6  N   LIG    1        2.679  -0.577   2.474  0.00  0.00    -0.250 NA
ENDROOT
BRANCH   4   7
ATOM      7  N   LIG    1        5.865   0.879   2.001  0.00  0.00    -0.690 N 
ATOM      8  H   LIG    1        6.321   1.450   1.363  0.00  0.00    +0.400 HD
BRANCH   7   9
ATOM      9  C   LIG    1        6.575   0.389   3.184  0.00  0.00    +0.430 C 
ATOM     10  C   LIG    1        7.459   1.504   3.747  0.00  0.00    +0.010 C 
BRANCH   9  11
ATOM     11  O   LIG    1        7.390  -0.728   2.823  0.00  0.00    -0.590 OA
ATOM     12  H   LIG    1        7.890  -1.104   3.559  0.00  0.00    +0.380 HD
ENDBRANCH   9  11
ENDBRANCH   7   9
ENDBRANCH   4   7
BRANCH   1  13
ATOM     13  N   LIG    1        0.711  -0.489   1.189  0.00  0.00    -0.650 NA
BRANCH  13  15
ATOM     14  C   LIG    1       -0.019   1.526   0.010  0.00  0.00    -0.030 C 
ATOM     15  C   LIG    1        0.002  -0.004   0.002  0.00  0.00    +0.310 C 
BRANCH  15  16
ATOM     16  O   LIG    1       -1.339  -0.499   0.012  0.00  0.00    -0.560 OA
ATOM     17  H   LIG    1       -1.868  -0.216  -0.746  0.00  0.00    +0.360 HD
ENDBRANCH  15  16
ENDBRANCH  13  15
ENDBRANCH   1  13
TORSDOF 6
