REMARK  Name = ZINC000003683855
REMARK                            x       y       z     vdW  Elec       q    Type
REMARK                         _______ _______ _______ _____ _____    ______ ____
ROOT
ATOM      1  N   LIG    1        2.412   3.964  -0.016  0.00  0.00    -0.600 N 
ENDROOT
BRANCH   1   7
ATOM      2  O   LIG    1        0.235  -0.002  -0.814  0.00  0.00    -0.620 OA
ATOM      3  C   LIG    1        0.193   1.152  -0.419  0.00  0.00    +0.610 A 
ATOM      4  N   LIG    1       -0.960   1.649   0.022  0.00  0.00    -0.640 NA
ATOM      5  C   LIG    1       -1.048   2.894   0.458  0.00  0.00    +0.330 A 
ATOM      6  C   LIG    1        0.075   3.709   0.460  0.00  0.00    -0.230 A 
ATOM      7  C   LIG    1        1.278   3.191  -0.002  0.00  0.00    +0.440 A 
ATOM      8  F   LIG    1        0.000   4.984   0.902  0.00  0.00    -0.160 F 
ATOM      9  N   LIG    1        1.314   1.897  -0.435  0.00  0.00    -0.660 NA
ENDBRANCH   1   7
BRANCH   1  10
ATOM     10  C   LIG    1        2.303   5.422  -0.113  0.00  0.00    +0.310 C 
BRANCH  10  11
ATOM     11  C   LIG    1        2.378   6.033   1.288  0.00  0.00    +0.150 C 
BRANCH  11  12
ATOM     12  O   LIG    1        3.680   5.812   1.835  0.00  0.00    -0.570 OA
ATOM     13  H   LIG    1        3.800   6.174   2.724  0.00  0.00    +0.370 HD
ENDBRANCH  11  12
ENDBRANCH  10  11
ENDBRANCH   1  10
BRANCH   1  14
ATOM     14  C   LIG    1        3.731   3.332   0.064  0.00  0.00    +0.310 C 
BRANCH  14  15
ATOM     15  C   LIG    1        4.234   3.020  -1.347  0.00  0.00    +0.160 C 
BRANCH  15  16
ATOM     16  O   LIG    1        4.443   4.241  -2.059  0.00  0.00    -0.570 OA
ATOM     17  H   LIG    1        4.763   4.120  -2.963  0.00  0.00    +0.370 HD
ENDBRANCH  15  16
ENDBRANCH  14  15
ENDBRANCH   1  14
TORSDOF 7
