REMARK  Name = ZINC000013585233
REMARK                            x       y       z     vdW  Elec       q    Type
REMARK                         _______ _______ _______ _____ _____    ______ ____
ROOT
ATOM      1  C   LIG    1        0.739  -2.027  -1.265  0.00  0.00    +0.200 C 
ATOM      2  C   LIG    1        1.472  -2.530  -2.518  0.00  0.00    +0.250 C 
ATOM      3  N   LIG    1        2.868  -2.076  -2.450  0.00  0.00    -0.730 N 
ATOM      4  H   LIG    1        3.296  -1.683  -3.227  0.00  0.00    +0.390 HD
ATOM      5  C   LIG    1        3.565  -2.219  -1.260  0.00  0.00    +0.380 A 
ATOM      6  C   LIG    1        2.875  -2.438  -0.077  0.00  0.00    -0.150 A 
ATOM      7  C   LIG    1        3.594  -2.576   1.115  0.00  0.00    +0.520 A 
ATOM      8  N   LIG    1        4.942  -2.490   1.069  0.00  0.00    -0.710 NA
ATOM      9  C   LIG    1        5.572  -2.275  -0.118  0.00  0.00    +0.580 A 
ATOM     10  O   LIG    1        3.017  -2.770   2.174  0.00  0.00    -0.630 OA
ATOM     11  N   LIG    1        4.901  -2.144  -1.243  0.00  0.00    -0.680 NA
ATOM     12  N   LIG    1        1.464  -2.521  -0.083  0.00  0.00    -0.720 N 
ATOM     13  H   LIG    1        0.985  -2.895   0.673  0.00  0.00    +0.400 HD
ENDROOT
BRANCH   9  14
ATOM     14  N   LIG    1        6.942  -2.193  -0.143  0.00  0.00    -0.840 N 
ATOM     15  H   LIG    1        7.403  -2.040  -0.982  0.00  0.00    +0.390 HD
ATOM     16  H   LIG    1        7.448  -2.287   0.679  0.00  0.00    +0.400 HD
ENDBRANCH   9  14
BRANCH   1  17
ATOM     17  C   LIG    1        0.718  -0.497  -1.257  0.00  0.00    +0.160 C 
BRANCH  17  19
ATOM     18  C   LIG    1       -0.019   1.526   0.010  0.00  0.00    -0.010 C 
ATOM     19  C   LIG    1        0.002  -0.004   0.002  0.00  0.00    +0.170 C 
BRANCH  19  20
ATOM     20  O   LIG    1        0.693  -0.477   1.160  0.00  0.00    -0.530 OA
ATOM     21  H   LIG    1        1.611  -0.180   1.219  0.00  0.00    +0.380 HD
ENDBRANCH  19  20
ENDBRANCH  17  19
BRANCH  17  22
ATOM     22  O   LIG    1        0.027  -0.024  -2.414  0.00  0.00    -0.560 OA
ATOM     23  H   LIG    1       -0.891  -0.322  -2.473  0.00  0.00    +0.370 HD
ENDBRANCH  17  22
ENDBRANCH   1  17
TORSDOF 5
