REMARK  Name = ZINC000040457307
REMARK                            x       y       z     vdW  Elec       q    Type
REMARK                         _______ _______ _______ _____ _____    ______ ____
ROOT
ATOM      1  C   LIG    1       -1.689  -1.671  -0.680  0.00  0.00    +0.290 A 
ATOM      2  N   LIG    1       -0.745  -2.325  -1.348  0.00  0.00    -0.220 NA
ATOM      3  N   LIG    1       -1.040  -3.403  -1.992  0.00  0.00    -0.250 NA
ATOM      4  C   LIG    1       -2.287  -3.860  -1.987  0.00  0.00    +0.360 A 
ATOM      5  N   LIG    1       -3.231  -3.207  -1.319  0.00  0.00    -0.280 NA
ATOM      6  N   LIG    1       -2.935  -2.131  -0.671  0.00  0.00    -0.230 NA
ENDROOT
BRANCH   1   7
ATOM      7  N   LIG    1       -1.372  -0.511   0.012  0.00  0.00    -0.720 N 
ATOM      8  H   LIG    1       -2.061  -0.036   0.503  0.00  0.00    +0.400 HD
BRANCH   7  10
ATOM      9  C   LIG    1       -0.019   1.526   0.010  0.00  0.00    +0.010 C 
ATOM     10  C   LIG    1        0.002  -0.004   0.002  0.00  0.00    +0.450 C 
BRANCH  10  11
ATOM     11  O   LIG    1        0.693  -0.477   1.160  0.00  0.00    -0.580 OA
ATOM     12  H   LIG    1        0.294  -0.202   1.996  0.00  0.00    +0.370 HD
ENDBRANCH  10  11
ENDBRANCH   7  10
ENDBRANCH   1   7
BRANCH   4  13
ATOM     13  N   LIG    1       -2.604  -5.020  -2.680  0.00  0.00    -0.700 NA
BRANCH  13  14
ATOM     14  C   LIG    1       -3.979  -5.524  -2.674  0.00  0.00    +0.330 C 
ATOM     15  C   LIG    1       -4.057  -6.806  -3.507  0.00  0.00    +0.010 C 
BRANCH  14  16
ATOM     16  O   LIG    1       -4.850  -4.539  -3.235  0.00  0.00    -0.590 OA
ATOM     17  H   LIG    1       -4.637  -4.300  -4.147  0.00  0.00    +0.350 HD
ENDBRANCH  14  16
ENDBRANCH  13  14
ENDBRANCH   4  13
TORSDOF 6
