REMARK  Name = ZINC000003830728
REMARK                            x       y       z     vdW  Elec       q    Type
REMARK                         _______ _______ _______ _____ _____    ______ ____
ROOT
ATOM      1  C   LIG    1       -0.363   1.566  -0.255  0.00  0.00    +0.060 C 
ATOM      2  C   LIG    1       -0.224   0.043  -0.201  0.00  0.00    +0.110 C 
ATOM      3  O   LIG    1       -1.513  -0.557   0.009  0.00  0.00    -0.350 OA
ATOM      4  C   LIG    1       -1.302  -1.734   0.819  0.00  0.00    +0.460 C 
ATOM      5  C   LIG    1       -0.233  -1.281   1.845  0.00  0.00    +0.180 C 
ATOM      6  C   LIG    1        0.672  -0.359   0.986  0.00  0.00    +0.120 C 
ENDROOT
BRANCH   4   7
ATOM      7  N   LIG    1       -0.799  -2.840   0.000  0.00  0.00    -0.540 N 
ATOM      8  C   LIG    1        0.365  -2.687  -0.707  0.00  0.00    +0.230 A 
ATOM      9  C   LIG    1        0.828  -3.707  -1.461  0.00  0.00    -0.100 A 
ATOM     10  C   LIG    1        0.095  -4.920  -1.504  0.00  0.00    +0.510 A 
ATOM     11  N   LIG    1       -1.046  -5.029  -0.794  0.00  0.00    -0.680 NA
ATOM     12  O   LIG    1        0.493  -5.854  -2.177  0.00  0.00    -0.580 OA
ATOM     13  F   LIG    1        1.974  -3.574  -2.164  0.00  0.00    -0.140 F 
ATOM     14  C   LIG    1       -1.482  -3.999  -0.047  0.00  0.00    +0.650 A 
ATOM     15  O   LIG    1       -2.512  -4.113   0.589  0.00  0.00    -0.600 OA
ENDBRANCH   4   7
BRANCH   5  16
ATOM     16  O   LIG    1        0.504  -2.399   2.342  0.00  0.00    -0.530 OA
ATOM     17  H   LIG    1        1.185  -2.166   2.987  0.00  0.00    +0.380 HD
ENDBRANCH   5  16
BRANCH   6  18
ATOM     18  O   LIG    1        1.064   0.794   1.733  0.00  0.00    -0.550 OA
ATOM     19  H   LIG    1        1.632   1.405   1.244  0.00  0.00    +0.380 HD
ENDBRANCH   6  18
TORSDOF 3
