REMARK  Name = ZINC000001065733
REMARK                            x       y       z     vdW  Elec       q    Type
REMARK                         _______ _______ _______ _____ _____    ______ ____
ROOT
ATOM      1  C   LIG    1        0.799  -2.346  -1.366  0.00  0.00    -0.740 A 
ATOM      2  C   LIG    1        0.003  -3.083  -2.230  0.00  0.00    +0.470 A 
ATOM      3  N   LIG    1       -0.011  -4.441  -2.103  0.00  0.00    -0.700 NA
ATOM      4  C   LIG    1        0.748  -5.010  -1.144  0.00  0.00    +0.560 A 
ATOM      5  N   LIG    1        1.497  -4.250  -0.338  0.00  0.00    -0.460 NA
ATOM      6  O   LIG    1        0.751  -6.222  -1.012  0.00  0.00    -0.650 OA
ATOM      7  O   LIG    1       -0.740  -2.471  -3.176  0.00  0.00    -0.690 OA
ATOM      8  N   LIG    1        1.523  -2.969  -0.451  0.00  0.00    -0.090 NA
ENDROOT
BRANCH   1   9
ATOM      9  S   LIG    1        0.851  -0.589  -1.490  0.00  0.00    +2.540 S 
ATOM     10  O   LIG    1        2.236  -0.275  -1.432  0.00  0.00    -0.980 OA
ATOM     11  O   LIG    1        0.082  -0.297  -2.649  0.00  0.00    -0.920 OA
BRANCH   9  13
ATOM     12  C   LIG    1       -0.019   1.526   0.010  0.00  0.00    +0.050 C 
ATOM     13  C   LIG    1        0.002  -0.004   0.002  0.00  0.00    -0.390 C 
ENDBRANCH   9  13
ENDBRANCH   1   9
TORSDOF 2
