REMARK  Name = ZINC000005494317
REMARK                            x       y       z     vdW  Elec       q    Type
REMARK                         _______ _______ _______ _____ _____    ______ ____
ROOT
ATOM      1  N   LIG    1       -0.892   3.619   1.519  0.00  0.00    -0.440 NA
ENDROOT
BRANCH   1   2
ATOM      2  C   LIG    1       -0.873   2.150   1.510  0.00  0.00    -0.510 C 
BRANCH   2   4
ATOM      3  O   LIG    1        0.002  -0.004   0.002  0.00  0.00    -1.210 OA
ATOM      4  P   LIG    1       -0.019   1.562   0.011  0.00  0.00    +2.240 P 
ATOM      5  O   LIG    1       -0.777   2.081  -1.259  0.00  0.00    -1.190 OA
ATOM      6  O   LIG    1        1.451   2.105  -0.001  0.00  0.00    -1.170 OA
ENDBRANCH   2   4
ENDBRANCH   1   2
BRANCH   1   7
ATOM      7  C   LIG    1       -1.006   4.137   2.889  0.00  0.00    -0.520 C 
BRANCH   7   8
ATOM      8  P   LIG    1       -0.305   5.818   2.963  0.00  0.00    +2.240 P 
ATOM      9  O   LIG    1       -0.310   6.320   4.447  0.00  0.00    -1.220 OA
ATOM     10  O   LIG    1       -1.169   6.783   2.083  0.00  0.00    -1.170 OA
ATOM     11  O   LIG    1        1.165   5.795   2.424  0.00  0.00    -1.180 OA
ENDBRANCH   7   8
ENDBRANCH   1   7
BRANCH   1  12
ATOM     12  C   LIG    1       -1.974   4.136   0.669  0.00  0.00    +0.280 C 
BRANCH  12  13
ATOM     13  O   LIG    1       -1.644   5.453   0.226  0.00  0.00    -0.480 OA
ATOM     14  H   LIG    1       -2.315   5.857  -0.341  0.00  0.00    +0.330 HD
ENDBRANCH  12  13
ENDBRANCH   1  12
TORSDOF 6
