REMARK  Name = ZINC000005829542
REMARK                            x       y       z     vdW  Elec       q    Type
REMARK                         _______ _______ _______ _____ _____    ______ ____
ROOT
ATOM      1  C   LIG    1       -1.136  -2.159   0.001  0.00  0.00    +0.080 C 
ATOM      2  C   LIG    1       -0.826  -2.634   1.408  0.00  0.00    +0.500 C 
ATOM      3  N   LIG    1       -1.713  -3.430   1.995  0.00  0.00    -0.710 NA
ATOM      4  C   LIG    1       -2.842  -3.807   1.384  0.00  0.00    +0.580 C 
ATOM      5  N   LIG    1       -3.200  -3.440   0.148  0.00  0.00    -0.710 NA
ATOM      6  S   LIG    1       -3.905  -4.834   2.247  0.00  0.00    -0.830 S 
ATOM      7  O   LIG    1        0.199  -2.299   1.979  0.00  0.00    -0.570 OA
ATOM      8  C   LIG    1       -2.442  -2.645  -0.598  0.00  0.00    +0.500 C 
ATOM      9  O   LIG    1       -2.783  -2.319  -1.724  0.00  0.00    -0.590 OA
ENDROOT
BRANCH   1  12
ATOM     10  C   LIG    1       -0.018   1.503   0.010  0.00  0.00    +0.080 C 
ATOM     11  C   LIG    1        0.002  -0.004   0.002  0.00  0.00    +0.500 C 
ATOM     12  N   LIG    1       -1.156  -0.694   0.009  0.00  0.00    -0.690 N 
ATOM     13  H   LIG    1       -2.002  -0.220   0.020  0.00  0.00    +0.390 HD
ATOM     14  O   LIG    1        1.060  -0.596  -0.011  0.00  0.00    -0.540 OA
ENDBRANCH   1  12
TORSDOF 1
