REMARK  Name = ZINC000005131744
REMARK                            x       y       z     vdW  Elec       q    Type
REMARK                         _______ _______ _______ _____ _____    ______ ____
ROOT
ATOM      1  N   ASP A  1       -2.300  -0.326  -1.494  0.00  0.00    -0.610 NA
ATOM      2  H   ASP A  1       -2.927  -0.121  -2.257  0.00  0.00    +0.320 HD
ENDROOT
BRANCH   1   3
ATOM      3  CA  ASP A  1       -2.176   0.825  -0.590  0.00  0.00    +0.110 C 
BRANCH   3   4
ATOM      4  C   ASP A  1       -3.549   1.330  -0.229  0.00  0.00    +0.460 C 
ATOM      5  OXT ASP A  1       -3.699   2.043   0.749  0.00  0.00    -0.760 OA
ATOM      6  O   ASP A  1       -4.510   1.026  -0.915  0.00  0.00    -0.660 OA
ENDBRANCH   3   4
BRANCH   3   7
ATOM      7  CB  ASP A  1       -1.390   1.938  -1.285  0.00  0.00    -0.080 C 
BRANCH   7   9
ATOM      8  OD1 ASP A  1        0.367   0.358  -1.190  0.00  0.00    -0.610 OA
ATOM      9  CG  ASP A  1        0.022   1.475  -1.536  0.00  0.00    +0.480 C 
ATOM     10  OD2 ASP A  1        0.818   2.215  -2.089  0.00  0.00    -0.780 OA
ENDBRANCH   7   9
ENDBRANCH   3   7
ENDBRANCH   1   3
BRANCH   1  11
ATOM     11  CA  ASP A  1       -2.732  -1.525  -0.764  0.00  0.00    +0.070 C 
BRANCH  11  12
ATOM     12  C   ASP A  1       -1.596  -2.034   0.085  0.00  0.00    +0.490 C 
ATOM     13  OXT ASP A  1       -0.443  -1.860  -0.272  0.00  0.00    -0.640 OA
ATOM     14  O   ASP A  1       -1.829  -2.620   1.128  0.00  0.00    -0.770 OA
ENDBRANCH  11  12
BRANCH  11  15
ATOM     15  CB  ASP A  1       -3.148  -2.607  -1.762  0.00  0.00    -0.080 C 
BRANCH  15  16
ATOM     16  CG  ASP A  1       -4.379  -2.159  -2.507  0.00  0.00    +0.480 C 
ATOM     17  OD2 ASP A  1       -4.810  -2.827  -3.431  0.00  0.00    -0.770 OA
ATOM     18  OD1 ASP A  1       -4.944  -1.128  -2.184  0.00  0.00    -0.630 OA
ENDBRANCH  15  16
ENDBRANCH  11  15
ENDBRANCH   1  11
TORSDOF 8
