REMARK  Name = ZINC000005830301
REMARK                            x       y       z     vdW  Elec       q    Type
REMARK                         _______ _______ _______ _____ _____    ______ ____
ROOT
ATOM      1  C   LIG    1       -0.903   3.676   1.394  0.00  0.00    -0.410 C 
ENDROOT
BRANCH   1   2
ATOM      2  P   LIG    1        0.799   4.307   1.231  0.00  0.00    +2.230 P 
ATOM      3  O   LIG    1        0.778   5.874   1.240  0.00  0.00    -1.200 OA
ATOM      4  O   LIG    1        1.417   3.801  -0.117  0.00  0.00    -1.200 OA
ATOM      5  O   LIG    1        1.665   3.790   2.430  0.00  0.00    -1.200 OA
ENDBRANCH   1   2
BRANCH   1   6
ATOM      6  O   LIG    1       -1.611   3.893   0.171  0.00  0.00    -0.550 OA
ATOM      7  H   LIG    1       -1.216   3.455  -0.595  0.00  0.00    +0.340 HD
ENDBRANCH   1   6
BRANCH   1   8
ATOM      8  C   LIG    1       -0.864   2.177   1.701  0.00  0.00    -0.650 C 
BRANCH   8  10
ATOM      9  O   LIG    1       -2.502   0.077   2.468  0.00  0.00    -1.220 OA
ATOM     10  P   LIG    1       -2.556   1.578   2.021  0.00  0.00    +2.260 P 
ATOM     11  O   LIG    1       -3.208   2.438   3.157  0.00  0.00    -1.210 OA
ATOM     12  O   LIG    1       -3.411   1.704   0.715  0.00  0.00    -1.200 OA
ENDBRANCH   8  10
ENDBRANCH   1   8
TORSDOF 4
