REMARK  Name = ZINC000005131908
REMARK                            x       y       z     vdW  Elec       q    Type
REMARK                         _______ _______ _______ _____ _____    ______ ____
ROOT
ATOM      1  N   ASP A  1       -2.585   0.169   1.112  0.00  0.00    -0.610 NA
ATOM      2  H   ASP A  1       -1.761   0.141   1.694  0.00  0.00    +0.320 HD
ENDROOT
BRANCH   1   3
ATOM      3  CA  ASP A  1       -2.315   0.872  -0.149  0.00  0.00    +0.080 C 
BRANCH   3   4
ATOM      4  C   ASP A  1       -3.619   1.266  -0.794  0.00  0.00    +0.490 C 
ATOM      5  OXT ASP A  1       -4.594   1.505  -0.102  0.00  0.00    -0.650 OA
ATOM      6  O   ASP A  1       -3.699   1.344  -2.008  0.00  0.00    -0.770 OA
ENDBRANCH   3   4
BRANCH   3   7
ATOM      7  CB  ASP A  1       -1.487   2.127   0.134  0.00  0.00    -0.080 C 
BRANCH   7   9
ATOM      8  OD1 ASP A  1        0.181   0.551   0.707  0.00  0.00    -0.630 OA
ATOM      9  CG  ASP A  1       -0.137   1.727   0.671  0.00  0.00    +0.480 C 
ATOM     10  OD2 ASP A  1        0.640   2.581   1.065  0.00  0.00    -0.770 OA
ENDBRANCH   7   9
ENDBRANCH   3   7
ENDBRANCH   1   3
BRANCH   1  11
ATOM     11  CA  ASP A  1       -3.098  -1.184   0.861  0.00  0.00    +0.110 C 
BRANCH  11  12
ATOM     12  C   ASP A  1       -1.983  -2.056   0.344  0.00  0.00    +0.450 C 
ATOM     13  OXT ASP A  1       -2.240  -3.118  -0.197  0.00  0.00    -0.770 OA
ATOM     14  O   ASP A  1       -0.823  -1.699   0.466  0.00  0.00    -0.650 OA
ENDBRANCH  11  12
BRANCH  11  15
ATOM     15  CB  ASP A  1       -3.643  -1.773   2.164  0.00  0.00    -0.080 C 
BRANCH  15  16
ATOM     16  CG  ASP A  1       -4.837  -0.972   2.617  0.00  0.00    +0.480 C 
ATOM     17  OD2 ASP A  1       -5.423  -1.277   3.641  0.00  0.00    -0.780 OA
ATOM     18  OD1 ASP A  1       -5.216  -0.019   1.958  0.00  0.00    -0.610 OA
ENDBRANCH  15  16
ENDBRANCH  11  15
ENDBRANCH   1  11
TORSDOF 8
