REMARK  Name = ZINC000085902748
REMARK                            x       y       z     vdW  Elec       q    Type
REMARK                         _______ _______ _______ _____ _____    ______ ____
ROOT
ATOM      1  C   LIG    1        1.779  -2.318   2.947  0.00  0.00    -0.780 A 
ATOM      2  C   LIG    1        1.166  -2.813   4.043  0.00  0.00    +0.380 A 
ATOM      3  N   LIG    1        1.874  -2.963   5.205  0.00  0.00    -0.670 N 
ATOM      4  H   LIG    1        1.434  -3.318   5.993  0.00  0.00    +0.390 HD
ATOM      5  C   LIG    1        3.174  -2.621   5.264  0.00  0.00    +0.640 A 
ATOM      6  N   LIG    1        3.809  -2.126   4.186  0.00  0.00    -0.710 NA
ATOM      7  O   LIG    1        3.784  -2.763   6.307  0.00  0.00    -0.640 OA
ATOM      8  C   LIG    1        3.149  -1.969   3.021  0.00  0.00    +0.550 A 
ATOM      9  O   LIG    1        3.723  -1.521   2.045  0.00  0.00    -0.560 OA
ENDROOT
BRANCH   1  10
ATOM     10  S   LIG    1        0.886  -2.117   1.440  0.00  0.00    +2.610 S 
ATOM     11  O   LIG    1        1.735  -2.594   0.405  0.00  0.00    -1.050 OA
ATOM     12  O   LIG    1       -0.418  -2.630   1.675  0.00  0.00    -1.090 OA
BRANCH  10  13
ATOM     13  N   LIG    1        0.711  -0.489   1.189  0.00  0.00    -1.170 NA
BRANCH  13  15
ATOM     14  C   LIG    1       -0.019   1.526   0.010  0.00  0.00    +0.000 C 
ATOM     15  C   LIG    1        0.002  -0.004   0.002  0.00  0.00    +0.100 C 
ENDBRANCH  13  15
ENDBRANCH  10  13
ENDBRANCH   1  10
TORSDOF 3
