REMARK  Name = ZINC000005829758
REMARK                            x       y       z     vdW  Elec       q    Type
REMARK                         _______ _______ _______ _____ _____    ______ ____
ROOT
ATOM      1  C   LIG    1       -1.007   3.673   1.571  0.00  0.00    -0.410 C 
ENDROOT
BRANCH   1   2
ATOM      2  P   LIG    1       -2.018   4.250   0.168  0.00  0.00    +2.230 P 
ATOM      3  O   LIG    1       -2.050   5.817   0.157  0.00  0.00    -1.200 OA
ATOM      4  O   LIG    1       -3.477   3.699   0.314  0.00  0.00    -1.200 OA
ATOM      5  O   LIG    1       -1.395   3.732  -1.172  0.00  0.00    -1.200 OA
ENDBRANCH   1   2
BRANCH   1   6
ATOM      6  O   LIG    1        0.283   4.285   1.513  0.00  0.00    -0.550 OA
ATOM      7  H   LIG    1        0.776   4.086   0.705  0.00  0.00    +0.340 HD
ENDBRANCH   1   6
BRANCH   1   8
ATOM      8  C   LIG    1       -0.855   2.152   1.499  0.00  0.00    -0.650 C 
BRANCH   8  10
ATOM      9  O   LIG    1        0.049  -0.009   2.979  0.00  0.00    -1.220 OA
ATOM     10  P   LIG    1        0.015   1.557   2.986  0.00  0.00    +2.260 P 
ATOM     11  O   LIG    1        1.481   2.111   2.990  0.00  0.00    -1.200 OA
ATOM     12  O   LIG    1       -0.736   2.058   4.266  0.00  0.00    -1.210 OA
ENDBRANCH   8  10
ENDBRANCH   1   8
TORSDOF 4
