REMARK  Name = ZINC000005131745
REMARK                            x       y       z     vdW  Elec       q    Type
REMARK                         _______ _______ _______ _____ _____    ______ ____
ROOT
ATOM      1  N   ASP A  1       -2.672   0.274   1.724  0.00  0.00    -0.620 NA
ATOM      2  H   ASP A  1       -1.719   0.221   2.050  0.00  0.00    +0.320 HD
ENDROOT
BRANCH   1   3
ATOM      3  CA  ASP A  1       -2.853   1.410   0.810  0.00  0.00    +0.070 C 
BRANCH   3   4
ATOM      4  C   ASP A  1       -4.218   2.012   1.020  0.00  0.00    +0.510 C 
ATOM      5  OXT ASP A  1       -4.745   1.960   2.119  0.00  0.00    -0.660 OA
ATOM      6  O   ASP A  1       -4.797   2.550   0.092  0.00  0.00    -0.770 OA
ENDBRANCH   3   4
BRANCH   3   7
ATOM      7  CB  ASP A  1       -1.782   2.466   1.090  0.00  0.00    -0.090 C 
BRANCH   7   9
ATOM      8  OD1 ASP A  1       -0.333   0.826   0.191  0.00  0.00    -0.620 OA
ATOM      9  CG  ASP A  1       -0.425   1.909   0.744  0.00  0.00    +0.470 C 
ATOM     10  OD2 ASP A  1        0.581   2.543   1.014  0.00  0.00    -0.770 OA
ENDBRANCH   7   9
ENDBRANCH   3   7
ENDBRANCH   1   3
BRANCH   1  11
ATOM     11  CA  ASP A  1       -3.082  -0.985   1.088  0.00  0.00    +0.070 C 
BRANCH  11  12
ATOM     12  C   ASP A  1       -4.587  -1.062   1.052  0.00  0.00    +0.500 C 
ATOM     13  OXT ASP A  1       -5.246  -0.518   1.921  0.00  0.00    -0.650 OA
ATOM     14  O   ASP A  1       -5.144  -1.670   0.154  0.00  0.00    -0.770 OA
ENDBRANCH  11  12
BRANCH  11  15
ATOM     15  CB  ASP A  1       -2.529  -2.165   1.889  0.00  0.00    -0.090 C 
BRANCH  15  16
ATOM     16  CG  ASP A  1       -1.025  -2.176   1.794  0.00  0.00    +0.470 C 
ATOM     17  OD2 ASP A  1       -0.378  -2.960   2.466  0.00  0.00    -0.770 OA
ATOM     18  OD1 ASP A  1       -0.456  -1.400   1.045  0.00  0.00    -0.620 OA
ENDBRANCH  15  16
ENDBRANCH  11  15
ENDBRANCH   1  11
TORSDOF 8
