REMARK  Name = ZINC000004521601
REMARK                            x       y       z     vdW  Elec       q    Type
REMARK                         _______ _______ _______ _____ _____    ______ ____
ROOT
ATOM      1  N   LIG    1       -0.892   3.619   1.519  0.00  0.00    -0.630 NA
ATOM      2  H   LIG    1       -0.742   3.978   2.450  0.00  0.00    +0.290 HD
ENDROOT
BRANCH   1   3
ATOM      3  C   LIG    1       -0.873   2.150   1.510  0.00  0.00    -0.480 C 
BRANCH   3   5
ATOM      4  O   LIG    1        0.002  -0.004   0.002  0.00  0.00    -1.210 OA
ATOM      5  P   LIG    1       -0.019   1.562   0.011  0.00  0.00    +2.260 P 
ATOM      6  O   LIG    1       -0.777   2.081  -1.259  0.00  0.00    -1.200 OA
ATOM      7  O   LIG    1        1.451   2.105  -0.001  0.00  0.00    -1.200 OA
ENDBRANCH   3   5
ENDBRANCH   1   3
BRANCH   1   8
ATOM      8  C   LIG    1       -2.148   4.132   0.954  0.00  0.00    -0.460 C 
BRANCH   8   9
ATOM      9  P   LIG    1       -3.329   4.466   2.302  0.00  0.00    +2.220 P 
ATOM     10  O   LIG    1       -4.709   4.891   1.693  0.00  0.00    -1.200 OA
ATOM     11  O   LIG    1       -2.778   5.622   3.204  0.00  0.00    -1.190 OA
ATOM     12  O   LIG    1       -3.515   3.172   3.166  0.00  0.00    -1.190 OA
ENDBRANCH   8   9
ENDBRANCH   1   8
TORSDOF 4
