MODEL        1
REMARK  Name = ZINC000001065733
REMARK                            x       y       z     vdW  Elec       q    Type
REMARK                         _______ _______ _______ _____ _____    ______ ____
ROOT
ATOM      1  C   LIG    1        0.799  -2.346  -1.366  0.00  0.00    -0.740 A 
ATOM      2  C   LIG    1        0.003  -3.083  -2.230  0.00  0.00    +0.470 A 
ATOM      3  N   LIG    1       -0.011  -4.441  -2.103  0.00  0.00    -0.700 NA
ATOM      4  C   LIG    1        0.748  -5.010  -1.144  0.00  0.00    +0.560 A 
ATOM      5  N   LIG    1        1.497  -4.250  -0.338  0.00  0.00    -0.460 NA
ATOM      6  O   LIG    1        0.751  -6.222  -1.012  0.00  0.00    -0.650 OA
ATOM      7  O   LIG    1       -0.740  -2.471  -3.176  0.00  0.00    -0.690 OA
ATOM      8  N   LIG    1        1.523  -2.969  -0.451  0.00  0.00    -0.090 NA
ENDROOT
BRANCH   1   9
ATOM      9  S   LIG    1        0.851  -0.589  -1.490  0.00  0.00    +2.540 S 
ATOM     10  O   LIG    1        2.236  -0.275  -1.432  0.00  0.00    -0.980 OA
ATOM     11  O   LIG    1        0.082  -0.297  -2.649  0.00  0.00    -0.920 OA
BRANCH   9  13
ATOM     12  C   LIG    1       -0.019   1.526   0.010  0.00  0.00    +0.050 C 
ATOM     13  C   LIG    1        0.002  -0.004   0.002  0.00  0.00    -0.390 C 
ENDBRANCH   9  13
ENDBRANCH   1   9
TORSDOF 2
ENDMDL
MODEL        2
REMARK  Name = ZINC000004521601
REMARK                            x       y       z     vdW  Elec       q    Type
REMARK                         _______ _______ _______ _____ _____    ______ ____
ROOT
ATOM      1  N   LIG    1       -0.892   3.619   1.519  0.00  0.00    -0.630 NA
ATOM      2  H   LIG    1       -0.742   3.978   2.450  0.00  0.00    +0.290 HD
ENDROOT
BRANCH   1   3
ATOM      3  C   LIG    1       -0.873   2.150   1.510  0.00  0.00    -0.480 C 
BRANCH   3   5
ATOM      4  O   LIG    1        0.002  -0.004   0.002  0.00  0.00    -1.210 OA
ATOM      5  P   LIG    1       -0.019   1.562   0.011  0.00  0.00    +2.260 P 
ATOM      6  O   LIG    1       -0.777   2.081  -1.259  0.00  0.00    -1.200 OA
ATOM      7  O   LIG    1        1.451   2.105  -0.001  0.00  0.00    -1.200 OA
ENDBRANCH   3   5
ENDBRANCH   1   3
BRANCH   1   8
ATOM      8  C   LIG    1       -2.148   4.132   0.954  0.00  0.00    -0.460 C 
BRANCH   8   9
ATOM      9  P   LIG    1       -3.329   4.466   2.302  0.00  0.00    +2.220 P 
ATOM     10  O   LIG    1       -4.709   4.891   1.693  0.00  0.00    -1.200 OA
ATOM     11  O   LIG    1       -2.778   5.622   3.204  0.00  0.00    -1.190 OA
ATOM     12  O   LIG    1       -3.515   3.172   3.166  0.00  0.00    -1.190 OA
ENDBRANCH   8   9
ENDBRANCH   1   8
TORSDOF 4
ENDMDL
MODEL        3
REMARK  Name = ZINC000005131744
REMARK                            x       y       z     vdW  Elec       q    Type
REMARK                         _______ _______ _______ _____ _____    ______ ____
ROOT
ATOM      1  N   ASP A  1       -2.300  -0.326  -1.494  0.00  0.00    -0.610 NA
ATOM      2  H   ASP A  1       -2.927  -0.121  -2.257  0.00  0.00    +0.320 HD
ENDROOT
BRANCH   1   3
ATOM      3  CA  ASP A  1       -2.176   0.825  -0.590  0.00  0.00    +0.110 C 
BRANCH   3   4
ATOM      4  C   ASP A  1       -3.549   1.330  -0.229  0.00  0.00    +0.460 C 
ATOM      5  OXT ASP A  1       -3.699   2.043   0.749  0.00  0.00    -0.760 OA
ATOM      6  O   ASP A  1       -4.510   1.026  -0.915  0.00  0.00    -0.660 OA
ENDBRANCH   3   4
BRANCH   3   7
ATOM      7  CB  ASP A  1       -1.390   1.938  -1.285  0.00  0.00    -0.080 C 
BRANCH   7   9
ATOM      8  OD1 ASP A  1        0.367   0.358  -1.190  0.00  0.00    -0.610 OA
ATOM      9  CG  ASP A  1        0.022   1.475  -1.536  0.00  0.00    +0.480 C 
ATOM     10  OD2 ASP A  1        0.818   2.215  -2.089  0.00  0.00    -0.780 OA
ENDBRANCH   7   9
ENDBRANCH   3   7
ENDBRANCH   1   3
BRANCH   1  11
ATOM     11  CA  ASP A  1       -2.732  -1.525  -0.764  0.00  0.00    +0.070 C 
BRANCH  11  12
ATOM     12  C   ASP A  1       -1.596  -2.034   0.085  0.00  0.00    +0.490 C 
ATOM     13  OXT ASP A  1       -0.443  -1.860  -0.272  0.00  0.00    -0.640 OA
ATOM     14  O   ASP A  1       -1.829  -2.620   1.128  0.00  0.00    -0.770 OA
ENDBRANCH  11  12
BRANCH  11  15
ATOM     15  CB  ASP A  1       -3.148  -2.607  -1.762  0.00  0.00    -0.080 C 
BRANCH  15  16
ATOM     16  CG  ASP A  1       -4.379  -2.159  -2.507  0.00  0.00    +0.480 C 
ATOM     17  OD2 ASP A  1       -4.810  -2.827  -3.431  0.00  0.00    -0.770 OA
ATOM     18  OD1 ASP A  1       -4.944  -1.128  -2.184  0.00  0.00    -0.630 OA
ENDBRANCH  15  16
ENDBRANCH  11  15
ENDBRANCH   1  11
TORSDOF 8
ENDMDL
MODEL        4
REMARK  Name = ZINC000005131908
REMARK                            x       y       z     vdW  Elec       q    Type
REMARK                         _______ _______ _______ _____ _____    ______ ____
ROOT
ATOM      1  N   ASP A  1       -2.585   0.169   1.112  0.00  0.00    -0.610 NA
ATOM      2  H   ASP A  1       -1.761   0.141   1.694  0.00  0.00    +0.320 HD
ENDROOT
BRANCH   1   3
ATOM      3  CA  ASP A  1       -2.315   0.872  -0.149  0.00  0.00    +0.080 C 
BRANCH   3   4
ATOM      4  C   ASP A  1       -3.619   1.266  -0.794  0.00  0.00    +0.490 C 
ATOM      5  OXT ASP A  1       -4.594   1.505  -0.102  0.00  0.00    -0.650 OA
ATOM      6  O   ASP A  1       -3.699   1.344  -2.008  0.00  0.00    -0.770 OA
ENDBRANCH   3   4
BRANCH   3   7
ATOM      7  CB  ASP A  1       -1.487   2.127   0.134  0.00  0.00    -0.080 C 
BRANCH   7   9
ATOM      8  OD1 ASP A  1        0.181   0.551   0.707  0.00  0.00    -0.630 OA
ATOM      9  CG  ASP A  1       -0.137   1.727   0.671  0.00  0.00    +0.480 C 
ATOM     10  OD2 ASP A  1        0.640   2.581   1.065  0.00  0.00    -0.770 OA
ENDBRANCH   7   9
ENDBRANCH   3   7
ENDBRANCH   1   3
BRANCH   1  11
ATOM     11  CA  ASP A  1       -3.098  -1.184   0.861  0.00  0.00    +0.110 C 
BRANCH  11  12
ATOM     12  C   ASP A  1       -1.983  -2.056   0.344  0.00  0.00    +0.450 C 
ATOM     13  OXT ASP A  1       -2.240  -3.118  -0.197  0.00  0.00    -0.770 OA
ATOM     14  O   ASP A  1       -0.823  -1.699   0.466  0.00  0.00    -0.650 OA
ENDBRANCH  11  12
BRANCH  11  15
ATOM     15  CB  ASP A  1       -3.643  -1.773   2.164  0.00  0.00    -0.080 C 
BRANCH  15  16
ATOM     16  CG  ASP A  1       -4.837  -0.972   2.617  0.00  0.00    +0.480 C 
ATOM     17  OD2 ASP A  1       -5.423  -1.277   3.641  0.00  0.00    -0.780 OA
ATOM     18  OD1 ASP A  1       -5.216  -0.019   1.958  0.00  0.00    -0.610 OA
ENDBRANCH  15  16
ENDBRANCH  11  15
ENDBRANCH   1  11
TORSDOF 8
ENDMDL
MODEL        5
REMARK  Name = ZINC000005131745
REMARK                            x       y       z     vdW  Elec       q    Type
REMARK                         _______ _______ _______ _____ _____    ______ ____
ROOT
ATOM      1  N   ASP A  1       -2.672   0.274   1.724  0.00  0.00    -0.620 NA
ATOM      2  H   ASP A  1       -1.719   0.221   2.050  0.00  0.00    +0.320 HD
ENDROOT
BRANCH   1   3
ATOM      3  CA  ASP A  1       -2.853   1.410   0.810  0.00  0.00    +0.070 C 
BRANCH   3   4
ATOM      4  C   ASP A  1       -4.218   2.012   1.020  0.00  0.00    +0.510 C 
ATOM      5  OXT ASP A  1       -4.745   1.960   2.119  0.00  0.00    -0.660 OA
ATOM      6  O   ASP A  1       -4.797   2.550   0.092  0.00  0.00    -0.770 OA
ENDBRANCH   3   4
BRANCH   3   7
ATOM      7  CB  ASP A  1       -1.782   2.466   1.090  0.00  0.00    -0.090 C 
BRANCH   7   9
ATOM      8  OD1 ASP A  1       -0.333   0.826   0.191  0.00  0.00    -0.620 OA
ATOM      9  CG  ASP A  1       -0.425   1.909   0.744  0.00  0.00    +0.470 C 
ATOM     10  OD2 ASP A  1        0.581   2.543   1.014  0.00  0.00    -0.770 OA
ENDBRANCH   7   9
ENDBRANCH   3   7
ENDBRANCH   1   3
BRANCH   1  11
ATOM     11  CA  ASP A  1       -3.082  -0.985   1.088  0.00  0.00    +0.070 C 
BRANCH  11  12
ATOM     12  C   ASP A  1       -4.587  -1.062   1.052  0.00  0.00    +0.500 C 
ATOM     13  OXT ASP A  1       -5.246  -0.518   1.921  0.00  0.00    -0.650 OA
ATOM     14  O   ASP A  1       -5.144  -1.670   0.154  0.00  0.00    -0.770 OA
ENDBRANCH  11  12
BRANCH  11  15
ATOM     15  CB  ASP A  1       -2.529  -2.165   1.889  0.00  0.00    -0.090 C 
BRANCH  15  16
ATOM     16  CG  ASP A  1       -1.025  -2.176   1.794  0.00  0.00    +0.470 C 
ATOM     17  OD2 ASP A  1       -0.378  -2.960   2.466  0.00  0.00    -0.770 OA
ATOM     18  OD1 ASP A  1       -0.456  -1.400   1.045  0.00  0.00    -0.620 OA
ENDBRANCH  15  16
ENDBRANCH  11  15
ENDBRANCH   1  11
TORSDOF 8
ENDMDL
MODEL        6
REMARK  Name = ZINC000005494317
REMARK                            x       y       z     vdW  Elec       q    Type
REMARK                         _______ _______ _______ _____ _____    ______ ____
ROOT
ATOM      1  N   LIG    1       -0.892   3.619   1.519  0.00  0.00    -0.440 NA
ENDROOT
BRANCH   1   2
ATOM      2  C   LIG    1       -0.873   2.150   1.510  0.00  0.00    -0.510 C 
BRANCH   2   4
ATOM      3  O   LIG    1        0.002  -0.004   0.002  0.00  0.00    -1.210 OA
ATOM      4  P   LIG    1       -0.019   1.562   0.011  0.00  0.00    +2.240 P 
ATOM      5  O   LIG    1       -0.777   2.081  -1.259  0.00  0.00    -1.190 OA
ATOM      6  O   LIG    1        1.451   2.105  -0.001  0.00  0.00    -1.170 OA
ENDBRANCH   2   4
ENDBRANCH   1   2
BRANCH   1   7
ATOM      7  C   LIG    1       -1.006   4.137   2.889  0.00  0.00    -0.520 C 
BRANCH   7   8
ATOM      8  P   LIG    1       -0.305   5.818   2.963  0.00  0.00    +2.240 P 
ATOM      9  O   LIG    1       -0.310   6.320   4.447  0.00  0.00    -1.220 OA
ATOM     10  O   LIG    1       -1.169   6.783   2.083  0.00  0.00    -1.170 OA
ATOM     11  O   LIG    1        1.165   5.795   2.424  0.00  0.00    -1.180 OA
ENDBRANCH   7   8
ENDBRANCH   1   7
BRANCH   1  12
ATOM     12  C   LIG    1       -1.974   4.136   0.669  0.00  0.00    +0.280 C 
BRANCH  12  13
ATOM     13  O   LIG    1       -1.644   5.453   0.226  0.00  0.00    -0.480 OA
ATOM     14  H   LIG    1       -2.315   5.857  -0.341  0.00  0.00    +0.330 HD
ENDBRANCH  12  13
ENDBRANCH   1  12
TORSDOF 6
ENDMDL
MODEL        7
REMARK  Name = ZINC000005829758
REMARK                            x       y       z     vdW  Elec       q    Type
REMARK                         _______ _______ _______ _____ _____    ______ ____
ROOT
ATOM      1  C   LIG    1       -1.007   3.673   1.571  0.00  0.00    -0.410 C 
ENDROOT
BRANCH   1   2
ATOM      2  P   LIG    1       -2.018   4.250   0.168  0.00  0.00    +2.230 P 
ATOM      3  O   LIG    1       -2.050   5.817   0.157  0.00  0.00    -1.200 OA
ATOM      4  O   LIG    1       -3.477   3.699   0.314  0.00  0.00    -1.200 OA
ATOM      5  O   LIG    1       -1.395   3.732  -1.172  0.00  0.00    -1.200 OA
ENDBRANCH   1   2
BRANCH   1   6
ATOM      6  O   LIG    1        0.283   4.285   1.513  0.00  0.00    -0.550 OA
ATOM      7  H   LIG    1        0.776   4.086   0.705  0.00  0.00    +0.340 HD
ENDBRANCH   1   6
BRANCH   1   8
ATOM      8  C   LIG    1       -0.855   2.152   1.499  0.00  0.00    -0.650 C 
BRANCH   8  10
ATOM      9  O   LIG    1        0.049  -0.009   2.979  0.00  0.00    -1.220 OA
ATOM     10  P   LIG    1        0.015   1.557   2.986  0.00  0.00    +2.260 P 
ATOM     11  O   LIG    1        1.481   2.111   2.990  0.00  0.00    -1.200 OA
ATOM     12  O   LIG    1       -0.736   2.058   4.266  0.00  0.00    -1.210 OA
ENDBRANCH   8  10
ENDBRANCH   1   8
TORSDOF 4
ENDMDL
MODEL        8
REMARK  Name = ZINC000005830301
REMARK                            x       y       z     vdW  Elec       q    Type
REMARK                         _______ _______ _______ _____ _____    ______ ____
ROOT
ATOM      1  C   LIG    1       -0.903   3.676   1.394  0.00  0.00    -0.410 C 
ENDROOT
BRANCH   1   2
ATOM      2  P   LIG    1        0.799   4.307   1.231  0.00  0.00    +2.230 P 
ATOM      3  O   LIG    1        0.778   5.874   1.240  0.00  0.00    -1.200 OA
ATOM      4  O   LIG    1        1.417   3.801  -0.117  0.00  0.00    -1.200 OA
ATOM      5  O   LIG    1        1.665   3.790   2.430  0.00  0.00    -1.200 OA
ENDBRANCH   1   2
BRANCH   1   6
ATOM      6  O   LIG    1       -1.611   3.893   0.171  0.00  0.00    -0.550 OA
ATOM      7  H   LIG    1       -1.216   3.455  -0.595  0.00  0.00    +0.340 HD
ENDBRANCH   1   6
BRANCH   1   8
ATOM      8  C   LIG    1       -0.864   2.177   1.701  0.00  0.00    -0.650 C 
BRANCH   8  10
ATOM      9  O   LIG    1       -2.502   0.077   2.468  0.00  0.00    -1.220 OA
ATOM     10  P   LIG    1       -2.556   1.578   2.021  0.00  0.00    +2.260 P 
ATOM     11  O   LIG    1       -3.208   2.438   3.157  0.00  0.00    -1.210 OA
ATOM     12  O   LIG    1       -3.411   1.704   0.715  0.00  0.00    -1.200 OA
ENDBRANCH   8  10
ENDBRANCH   1   8
TORSDOF 4
ENDMDL
MODEL        9
REMARK  Name = ZINC000005829542
REMARK                            x       y       z     vdW  Elec       q    Type
REMARK                         _______ _______ _______ _____ _____    ______ ____
ROOT
ATOM      1  C   LIG    1       -1.136  -2.159   0.001  0.00  0.00    +0.080 C 
ATOM      2  C   LIG    1       -0.826  -2.634   1.408  0.00  0.00    +0.500 C 
ATOM      3  N   LIG    1       -1.713  -3.430   1.995  0.00  0.00    -0.710 NA
ATOM      4  C   LIG    1       -2.842  -3.807   1.384  0.00  0.00    +0.580 C 
ATOM      5  N   LIG    1       -3.200  -3.440   0.148  0.00  0.00    -0.710 NA
ATOM      6  S   LIG    1       -3.905  -4.834   2.247  0.00  0.00    -0.830 S 
ATOM      7  O   LIG    1        0.199  -2.299   1.979  0.00  0.00    -0.570 OA
ATOM      8  C   LIG    1       -2.442  -2.645  -0.598  0.00  0.00    +0.500 C 
ATOM      9  O   LIG    1       -2.783  -2.319  -1.724  0.00  0.00    -0.590 OA
ENDROOT
BRANCH   1  12
ATOM     10  C   LIG    1       -0.018   1.503   0.010  0.00  0.00    +0.080 C 
ATOM     11  C   LIG    1        0.002  -0.004   0.002  0.00  0.00    +0.500 C 
ATOM     12  N   LIG    1       -1.156  -0.694   0.009  0.00  0.00    -0.690 N 
ATOM     13  H   LIG    1       -2.002  -0.220   0.020  0.00  0.00    +0.390 HD
ATOM     14  O   LIG    1        1.060  -0.596  -0.011  0.00  0.00    -0.540 OA
ENDBRANCH   1  12
TORSDOF 1
ENDMDL
MODEL       10
REMARK  Name = ZINC000085902748
REMARK                            x       y       z     vdW  Elec       q    Type
REMARK                         _______ _______ _______ _____ _____    ______ ____
ROOT
ATOM      1  C   LIG    1        1.779  -2.318   2.947  0.00  0.00    -0.780 A 
ATOM      2  C   LIG    1        1.166  -2.813   4.043  0.00  0.00    +0.380 A 
ATOM      3  N   LIG    1        1.874  -2.963   5.205  0.00  0.00    -0.670 N 
ATOM      4  H   LIG    1        1.434  -3.318   5.993  0.00  0.00    +0.390 HD
ATOM      5  C   LIG    1        3.174  -2.621   5.264  0.00  0.00    +0.640 A 
ATOM      6  N   LIG    1        3.809  -2.126   4.186  0.00  0.00    -0.710 NA
ATOM      7  O   LIG    1        3.784  -2.763   6.307  0.00  0.00    -0.640 OA
ATOM      8  C   LIG    1        3.149  -1.969   3.021  0.00  0.00    +0.550 A 
ATOM      9  O   LIG    1        3.723  -1.521   2.045  0.00  0.00    -0.560 OA
ENDROOT
BRANCH   1  10
ATOM     10  S   LIG    1        0.886  -2.117   1.440  0.00  0.00    +2.610 S 
ATOM     11  O   LIG    1        1.735  -2.594   0.405  0.00  0.00    -1.050 OA
ATOM     12  O   LIG    1       -0.418  -2.630   1.675  0.00  0.00    -1.090 OA
BRANCH  10  13
ATOM     13  N   LIG    1        0.711  -0.489   1.189  0.00  0.00    -1.170 NA
BRANCH  13  15
ATOM     14  C   LIG    1       -0.019   1.526   0.010  0.00  0.00    +0.000 C 
ATOM     15  C   LIG    1        0.002  -0.004   0.002  0.00  0.00    +0.100 C 
ENDBRANCH  13  15
ENDBRANCH  10  13
ENDBRANCH   1  10
TORSDOF 3
ENDMDL
MODEL       11
REMARK  Name = ZINC000100329450
REMARK                            x       y       z     vdW  Elec       q    Type
REMARK                         _______ _______ _______ _____ _____    ______ ____
ROOT
ATOM      1  C   LIG    1       -0.997  -2.253  -0.001  0.00  0.00    +0.180 C 
ATOM      2  C   LIG    1       -0.851  -2.934   1.187  0.00  0.00    +0.143 C 
ATOM      3  C   LIG    1       -1.089  -2.277   2.487  0.00  0.00    +0.280 C 
ATOM      4  N   LIG    1       -0.926  -3.008   3.609  0.00  0.00    -0.123 NA
ATOM      5  C   LIG    1       -0.558  -4.296   3.559  0.00  0.00    +0.333 C 
ATOM      6  N   LIG    1       -0.325  -4.956   2.417  0.00  0.00    -0.234 N 
ATOM      7  H   LIG    1       -0.061  -5.889   2.454  0.00  0.00    +0.159 HD
ATOM      8  O   LIG    1       -0.430  -4.898   4.607  0.00  0.00    -0.250 OA
ATOM      9  O   LIG    1       -1.424  -1.109   2.545  0.00  0.00    -0.268 OA
ATOM     10  C   LIG    1       -0.455  -4.356   1.216  0.00  0.00    +0.260 C 
ATOM     11  O   LIG    1       -0.240  -4.966   0.185  0.00  0.00    -0.269 OA
ATOM     12  O   LIG    1       -0.651  -2.839  -1.157  0.00  0.00    -0.291 OA
ENDROOT
BRANCH   1  13
ATOM     13  C   LIG    1       -1.546  -0.849  -0.001  0.00  0.00    +0.154 C 
BRANCH  13  15
ATOM     14  C   LIG    1       -0.702   1.611   0.216  0.00  0.00    +0.086 C 
ATOM     15  C   LIG    1       -0.416   0.132   0.181  0.00  0.00    +0.138 C 
ATOM     16  O   LIG    1        0.717  -0.268   0.300  0.00  0.00    -0.297 OA
ENDBRANCH  13  15
ENDBRANCH   1  13
TORSDOF 2
ENDMDL
MODEL       12
REMARK  Name = ZINC000001266331
REMARK                            x       y       z     vdW  Elec       q    Type
REMARK                         _______ _______ _______ _____ _____    ______ ____
ROOT
ATOM      1  C   LIG    1        3.150  -0.623  -2.692  0.00  0.00    +0.264 A 
ATOM      2  C   LIG    1        3.533   0.246  -3.704  0.00  0.00    +0.320 A 
ATOM      3  N   LIG    1        4.063  -0.278  -4.845  0.00  0.00    -0.148 NA
ATOM      4  C   LIG    1        4.193  -1.618  -4.945  0.00  0.00    +0.389 A 
ATOM      5  N   LIG    1        3.807  -2.409  -3.937  0.00  0.00    -0.087 NA
ATOM      6  O   LIG    1        4.664  -2.109  -5.956  0.00  0.00    -0.241 OA
ATOM      7  O   LIG    1        3.385   1.579  -3.560  0.00  0.00    -0.262 OA
ATOM      8  N   LIG    1        3.310  -1.926  -2.854  0.00  0.00    -0.120 NA
ENDROOT
BRANCH   1   9
ATOM      9  S   LIG    1        2.460   0.006  -1.198  0.00  0.00    +0.021 S 
ATOM     10  O   LIG    1        3.148  -0.697  -0.172  0.00  0.00    -0.168 OA
ATOM     11  O   LIG    1        2.576   1.416  -1.325  0.00  0.00    -0.168 OA
BRANCH   9  12
ATOM     12  C   LIG    1        0.718  -0.497  -1.257  0.00  0.00    +0.177 C 
BRANCH  12  14
ATOM     13  C   LIG    1       -0.019   1.526   0.010  0.00  0.00    +0.009 C 
ATOM     14  C   LIG    1        0.002  -0.004   0.002  0.00  0.00    +0.004 C 
ATOM     15  C   LIG    1       -1.433  -0.534   0.013  0.00  0.00    +0.009 C 
ENDBRANCH  12  14
ENDBRANCH   9  12
ENDBRANCH   1   9
TORSDOF 3
ENDMDL
MODEL       13
REMARK  Name = ZINC000001750764
REMARK                            x       y       z     vdW  Elec       q    Type
REMARK                         _______ _______ _______ _____ _____    ______ ____
ROOT
ATOM      1  C   LIG    1       -0.018   1.503   0.010  0.00  0.00    +0.130 C 
ATOM      2  C   LIG    1        0.002  -0.004   0.002  0.00  0.00    +0.250 A 
ATOM      3  C   LIG    1       -1.156  -0.698   0.004  0.00  0.00    -0.860 A 
ATOM      4  C   LIG    1       -1.111  -2.113  -0.005  0.00  0.00    +0.550 A 
ATOM      5  N   LIG    1        0.084  -2.737  -0.014  0.00  0.00    -0.710 NA
ATOM      6  C   LIG    1        1.224  -2.020  -0.016  0.00  0.00    +0.640 A 
ATOM      7  O   LIG    1        2.294  -2.597  -0.024  0.00  0.00    -0.640 OA
ATOM      8  O   LIG    1       -2.142  -2.761  -0.004  0.00  0.00    -0.580 OA
ATOM      9  N   LIG    1        1.194  -0.675  -0.013  0.00  0.00    -0.670 N 
ATOM     10  H   LIG    1        2.026  -0.177  -0.014  0.00  0.00    +0.380 HD
ENDROOT
BRANCH   3  11
ATOM     11  S   LIG    1       -2.703   0.146   0.016  0.00  0.00    +2.730 S 
ATOM     12  O   LIG    1       -3.305  -0.064  -1.292  0.00  0.00    -1.080 OA
ATOM     13  O   LIG    1       -2.413   1.550   0.264  0.00  0.00    -1.090 OA
ATOM     14  O   LIG    1       -3.495  -0.445   1.083  0.00  0.00    -1.070 OA
ENDBRANCH   3  11
TORSDOF 1
ENDMDL
MODEL       14
REMARK  Name = ZINC000033327106
REMARK                            x       y       z     vdW  Elec       q    Type
REMARK                         _______ _______ _______ _____ _____    ______ ____
ROOT
ATOM      1  C   LIG    1        0.550  -2.538  -0.921  0.00  0.00    -0.790 A 
ATOM      2  C   LIG    1       -0.271  -3.302  -1.673  0.00  0.00    +0.380 A 
ATOM      3  N   LIG    1       -0.390  -4.638  -1.403  0.00  0.00    -0.670 N 
ATOM      4  H   LIG    1       -0.981  -5.186  -1.943  0.00  0.00    +0.390 HD
ATOM      5  C   LIG    1        0.303  -5.198  -0.395  0.00  0.00    +0.640 A 
ATOM      6  N   LIG    1        1.129  -4.460   0.369  0.00  0.00    -0.710 NA
ATOM      7  O   LIG    1        0.182  -6.387  -0.173  0.00  0.00    -0.640 OA
ATOM      8  C   LIG    1        1.279  -3.141   0.132  0.00  0.00    +0.550 A 
ATOM      9  O   LIG    1        2.026  -2.473   0.823  0.00  0.00    -0.560 OA
ENDROOT
BRANCH   1  10
ATOM     10  S   LIG    1        0.718  -0.816  -1.251  0.00  0.00    +2.610 S 
ATOM     11  O   LIG    1        2.107  -0.526  -1.175  0.00  0.00    -1.050 OA
ATOM     12  O   LIG    1       -0.069  -0.549  -2.404  0.00  0.00    -1.090 OA
BRANCH  10  14
ATOM     13  C   LIG    1       -0.018   1.461   0.010  0.00  0.00    +0.110 C 
ATOM     14  N   LIG    1        0.002  -0.004   0.002  0.00  0.00    -1.180 NA
ENDBRANCH  10  14
ENDBRANCH   1  10
TORSDOF 2
ENDMDL
MODEL       15
REMARK  Name = ZINC000033327113
REMARK                            x       y       z     vdW  Elec       q    Type
REMARK                         _______ _______ _______ _____ _____    ______ ____
ROOT
ATOM      1  O   LIG    1        0.002  -0.004   0.002  0.00  0.00    -0.640 OA
ATOM      2  C   LIG    1       -0.014   1.212   0.009  0.00  0.00    +0.640 A 
ATOM      3  N   LIG    1       -1.194   1.859   0.029  0.00  0.00    -0.710 NA
ATOM      4  C   LIG    1       -1.230   3.207   0.037  0.00  0.00    +0.550 A 
ATOM      5  C   LIG    1       -0.015   3.934   0.024  0.00  0.00    -0.790 A 
ATOM      6  C   LIG    1        1.154   3.259   0.004  0.00  0.00    +0.390 A 
ATOM      7  O   LIG    1       -2.297   3.794   0.056  0.00  0.00    -0.560 OA
ATOM      8  N   LIG    1        1.147   1.891   0.001  0.00  0.00    -0.670 N 
ATOM      9  H   LIG    1        1.987   1.406  -0.013  0.00  0.00    +0.390 HD
ENDROOT
BRANCH   5  10
ATOM     10  S   LIG    1       -0.029   5.696   0.035  0.00  0.00    +2.620 S 
ATOM     11  O   LIG    1        1.330   6.107   0.102  0.00  0.00    -1.080 OA
ATOM     12  O   LIG    1       -1.006   6.084   0.990  0.00  0.00    -1.050 OA
BRANCH  10  13
ATOM     13  N   LIG    1       -0.595   6.191  -1.441  0.00  0.00    -1.130 NA
BRANCH  13  14
ATOM     14  C   LIG    1       -0.721   7.620  -1.735  0.00  0.00    +0.180 C 
ATOM     15  C   LIG    1        0.228   8.213  -2.778  0.00  0.00    -0.100 C 
ATOM     16  C   LIG    1       -1.250   8.013  -3.116  0.00  0.00    -0.040 C 
ENDBRANCH  13  14
ENDBRANCH  10  13
ENDBRANCH   5  10
TORSDOF 3
ENDMDL
MODEL       16
REMARK  Name = ZINC000017146007
REMARK                            x       y       z     vdW  Elec       q    Type
REMARK                         _______ _______ _______ _____ _____    ______ ____
ROOT
ATOM      1  C   UNK    1        0.630  -0.498  -1.303  0.00  0.00    +0.180 C 
ENDROOT
BRANCH   1   2
ATOM      2  C   UNK    1        0.002  -0.004   0.002  0.00  0.00    +0.110 C 
BRANCH   2   3
ATOM      3  N   UNK    1       -0.018   1.465   0.010  0.00  0.00    -0.820 NA
ATOM      4  H   UNK    1       -0.556   1.823  -0.764  0.00  0.00    +0.340 HD
ATOM      5  H   UNK    1        0.919   1.839   0.003  0.00  0.00    +0.330 HD
ENDBRANCH   2   3
BRANCH   2   6
ATOM      6  C   UNK    1       -1.407  -0.526   0.111  0.00  0.00    +0.510 C 
ATOM      7  O   UNK    1       -1.621  -1.597   0.652  0.00  0.00    -0.700 OA
ATOM      8  O   UNK    1       -2.334   0.123  -0.343  0.00  0.00    -0.680 OA
ENDBRANCH   2   6
ENDBRANCH   1   2
BRANCH   1   9
ATOM      9  O   UNK    1        2.024  -0.095  -1.352  0.00  0.00    -0.360 OA
BRANCH   9  10
ATOM     10  C   UNK    1        2.724  -0.453  -2.440  0.00  0.00    +0.450 C 
ATOM     11  O   UNK    1        2.189  -1.083  -3.322  0.00  0.00    -0.520 OA
BRANCH  10  12
ATOM     12  C   UNK    1        4.176  -0.070  -2.562  0.00  0.00    +0.110 C 
BRANCH  12  13
ATOM     13  C   UNK    1        4.733  -0.596  -3.886  0.00  0.00    -0.040 C 
BRANCH  13  14
ATOM     14  C   UNK    1        6.185  -0.213  -4.008  0.00  0.00    +0.490 C 
ATOM     15  O   UNK    1        6.821  -0.538  -4.997  0.00  0.00    -0.710 OA
ATOM     16  O   UNK    1        6.725   0.422  -3.118  0.00  0.00    -0.700 OA
ENDBRANCH  13  14
ENDBRANCH  12  13
ENDBRANCH  10  12
ENDBRANCH   9  10
ENDBRANCH   1   9
TORSDOF 8
ENDMDL
MODEL       17
REMARK  Name = ZINC000004763081
REMARK                            x       y       z     vdW  Elec       q    Type
REMARK                         _______ _______ _______ _____ _____    ______ ____
ROOT
ATOM      1  C   UNK A  1       -1.414  -2.036   0.129  0.00  0.00    +0.530 C 
ATOM      2  N   ASP A  2       -1.226  -2.617   1.330  0.00  0.00    -0.660 N 
ATOM      3  H   ASP A  2       -1.103  -2.068   2.120  0.00  0.00    +0.380 HD
ATOM      4  O   UNK A  1       -1.567  -2.722  -0.860  0.00  0.00    -0.560 OA
ENDROOT
BRANCH   1   5
ATOM      5  C   UNK A  1       -1.433  -0.534   0.013  0.00  0.00    +0.170 C 
BRANCH   5   6
ATOM      6  N   UNK A  1       -2.107  -0.147  -1.234  0.00  0.00    -0.820 NA
ATOM      7  H   UNK A  1       -1.628  -0.527  -2.037  0.00  0.00    +0.350 HD
ATOM      8  H   UNK A  1       -2.191   0.856  -1.304  0.00  0.00    +0.330 HD
ENDBRANCH   5   6
BRANCH   5  10
ATOM      9  C   UNK A  1       -0.019   1.526   0.010  0.00  0.00    +0.000 C 
ATOM     10  C   UNK A  1        0.002  -0.004   0.002  0.00  0.00    +0.000 C 
ENDBRANCH   5  10
ENDBRANCH   1   5
BRANCH   2  11
ATOM     11  CA  ASP A  2       -1.207  -4.078   1.442  0.00  0.00    +0.190 C 
BRANCH  11  12
ATOM     12  C   ASP A  2       -2.618  -4.590   1.577  0.00  0.00    +0.490 C 
ATOM     13  OXT ASP A  2       -2.824  -5.787   1.683  0.00  0.00    -0.710 OA
ATOM     14  O   ASP A  2       -3.553  -3.807   1.578  0.00  0.00    -0.700 OA
ENDBRANCH  11  12
BRANCH  11  15
ATOM     15  CB  ASP A  2       -0.397  -4.484   2.676  0.00  0.00    -0.060 C 
BRANCH  15  16
ATOM     16  CG  ASP A  2        1.042  -4.079   2.487  0.00  0.00    +0.490 C 
ATOM     17  OD2 ASP A  2        1.860  -4.313   3.360  0.00  0.00    -0.720 OA
ATOM     18  OD1 ASP A  2        1.389  -3.518   1.462  0.00  0.00    -0.690 OA
ENDBRANCH  15  16
ENDBRANCH  11  15
ENDBRANCH   2  11
TORSDOF 7
ENDMDL
MODEL       18
REMARK  Name = ZINC000004763075
REMARK                            x       y       z     vdW  Elec       q    Type
REMARK                         _______ _______ _______ _____ _____    ______ ____
ROOT
ATOM      1  C   UNK A  1       -1.416  -2.035  -0.119  0.00  0.00    +0.490 C 
ATOM      2  N   ASP A  2       -1.251  -2.603  -1.330  0.00  0.00    -0.660 N 
ATOM      3  H   ASP A  2       -1.144  -2.046  -2.117  0.00  0.00    +0.380 HD
ATOM      4  O   UNK A  1       -1.550  -2.732   0.864  0.00  0.00    -0.580 OA
ENDROOT
BRANCH   1   5
ATOM      5  C   UNK A  1       -1.433  -0.534   0.013  0.00  0.00    +0.170 C 
BRANCH   5   6
ATOM      6  N   UNK A  1       -2.083  -0.161   1.276  0.00  0.00    -0.820 NA
ATOM      7  H   UNK A  1       -1.589  -0.549   2.066  0.00  0.00    +0.340 HD
ATOM      8  H   UNK A  1       -3.052  -0.443   1.282  0.00  0.00    +0.340 HD
ENDBRANCH   5   6
BRANCH   5  10
ATOM      9  C   UNK A  1       -0.019   1.526   0.010  0.00  0.00    +0.010 C 
ATOM     10  C   UNK A  1        0.002  -0.004   0.002  0.00  0.00    +0.020 C 
ENDBRANCH   5  10
ENDBRANCH   1   5
BRANCH   2  11
ATOM     11  CA  ASP A  2       -1.234  -4.062  -1.459  0.00  0.00    +0.180 C 
BRANCH  11  12
ATOM     12  C   ASP A  2        0.157  -4.574  -1.190  0.00  0.00    +0.490 C 
ATOM     13  OXT ASP A  2        0.388  -5.770  -1.245  0.00  0.00    -0.710 OA
ATOM     14  O   ASP A  2        1.052  -3.792  -0.916  0.00  0.00    -0.700 OA
ENDBRANCH  11  12
BRANCH  11  15
ATOM     15  CB  ASP A  2       -1.657  -4.454  -2.876  0.00  0.00    -0.060 C 
BRANCH  15  16
ATOM     16  CG  ASP A  2       -3.091  -4.051  -3.102  0.00  0.00    +0.490 C 
ATOM     17  OD2 ASP A  2       -3.625  -4.274  -4.175  0.00  0.00    -0.720 OA
ATOM     18  OD1 ASP A  2       -3.717  -3.500  -2.213  0.00  0.00    -0.690 OA
ENDBRANCH  15  16
ENDBRANCH  11  15
ENDBRANCH   2  11
TORSDOF 7
ENDMDL
MODEL       19
REMARK  Name = ZINC000004763089
REMARK                            x       y       z     vdW  Elec       q    Type
REMARK                         _______ _______ _______ _____ _____    ______ ____
ROOT
ATOM      1  C   UNK A  1       -1.414  -2.036   0.129  0.00  0.00    +0.520 C 
ATOM      2  N   ASP A  2       -1.226  -2.617   1.330  0.00  0.00    -0.660 N 
ATOM      3  H   ASP A  2       -1.103  -2.068   2.120  0.00  0.00    +0.380 HD
ATOM      4  O   UNK A  1       -1.567  -2.722  -0.860  0.00  0.00    -0.560 OA
ENDROOT
BRANCH   1   5
ATOM      5  C   UNK A  1       -1.433  -0.534   0.013  0.00  0.00    +0.170 C 
BRANCH   5   6
ATOM      6  N   UNK A  1       -2.107  -0.147  -1.234  0.00  0.00    -0.820 NA
ATOM      7  H   UNK A  1       -1.628  -0.527  -2.037  0.00  0.00    +0.350 HD
ATOM      8  H   UNK A  1       -2.191   0.856  -1.304  0.00  0.00    +0.330 HD
ENDBRANCH   5   6
BRANCH   5  10
ATOM      9  C   UNK A  1       -0.019   1.526   0.010  0.00  0.00    +0.010 C 
ATOM     10  C   UNK A  1        0.002  -0.004   0.002  0.00  0.00    -0.010 C 
ENDBRANCH   5  10
ENDBRANCH   1   5
BRANCH   2  11
ATOM     11  CA  ASP A  2       -1.207  -4.078   1.442  0.00  0.00    +0.190 C 
BRANCH  11  12
ATOM     12  C   ASP A  2        0.179  -4.587   1.141  0.00  0.00    +0.490 C 
ATOM     13  OXT ASP A  2        0.330  -5.691   0.647  0.00  0.00    -0.710 OA
ATOM     14  O   ASP A  2        1.151  -3.893   1.391  0.00  0.00    -0.710 OA
ENDBRANCH  11  12
BRANCH  11  15
ATOM     15  CB  ASP A  2       -1.602  -4.485   2.863  0.00  0.00    -0.050 C 
BRANCH  15  16
ATOM     16  CG  ASP A  2       -3.031  -4.084   3.121  0.00  0.00    +0.490 C 
ATOM     17  OD2 ASP A  2       -3.545  -4.319   4.202  0.00  0.00    -0.720 OA
ATOM     18  OD1 ASP A  2       -3.675  -3.524   2.250  0.00  0.00    -0.690 OA
ENDBRANCH  15  16
ENDBRANCH  11  15
ENDBRANCH   2  11
TORSDOF 7
ENDMDL
MODEL       20
REMARK  Name = ZINC000004763084
REMARK                            x       y       z     vdW  Elec       q    Type
REMARK                         _______ _______ _______ _____ _____    ______ ____
ROOT
ATOM      1  C   UNK A  1       -1.416  -2.035  -0.119  0.00  0.00    +0.480 C 
ATOM      2  N   ASP A  2       -1.251  -2.603  -1.330  0.00  0.00    -0.660 N 
ATOM      3  H   ASP A  2       -1.144  -2.046  -2.117  0.00  0.00    +0.390 HD
ATOM      4  O   UNK A  1       -1.550  -2.732   0.864  0.00  0.00    -0.570 OA
ENDROOT
BRANCH   1   5
ATOM      5  C   UNK A  1       -1.433  -0.534   0.013  0.00  0.00    +0.170 C 
BRANCH   5   6
ATOM      6  N   UNK A  1       -2.083  -0.161   1.276  0.00  0.00    -0.820 NA
ATOM      7  H   UNK A  1       -1.589  -0.549   2.066  0.00  0.00    +0.340 HD
ATOM      8  H   UNK A  1       -3.052  -0.443   1.282  0.00  0.00    +0.340 HD
ENDBRANCH   5   6
BRANCH   5  10
ATOM      9  C   UNK A  1       -0.019   1.526   0.010  0.00  0.00    +0.010 C 
ATOM     10  C   UNK A  1        0.002  -0.004   0.002  0.00  0.00    +0.030 C 
ENDBRANCH   5  10
ENDBRANCH   1   5
BRANCH   2  11
ATOM     11  CA  ASP A  2       -1.234  -4.062  -1.459  0.00  0.00    +0.180 C 
BRANCH  11  12
ATOM     12  C   ASP A  2       -2.648  -4.573  -1.571  0.00  0.00    +0.490 C 
ATOM     13  OXT ASP A  2       -2.930  -5.683  -1.153  0.00  0.00    -0.710 OA
ATOM     14  O   ASP A  2       -3.509  -3.876  -2.082  0.00  0.00    -0.710 OA
ENDBRANCH  11  12
BRANCH  11  15
ATOM     15  CB  ASP A  2       -0.449  -4.455  -2.711  0.00  0.00    -0.050 C 
BRANCH  15  16
ATOM     16  CG  ASP A  2        0.994  -4.052  -2.546  0.00  0.00    +0.490 C 
ATOM     17  OD2 ASP A  2        1.796  -4.277  -3.437  0.00  0.00    -0.720 OA
ATOM     18  OD1 ASP A  2        1.360  -3.502  -1.521  0.00  0.00    -0.690 OA
ENDBRANCH  15  16
ENDBRANCH  11  15
ENDBRANCH   2  11
TORSDOF 7
ENDMDL
MODEL       21
REMARK  Name = ZINC000020593294
REMARK                            x       y       z     vdW  Elec       q    Type
REMARK                         _______ _______ _______ _____ _____    ______ ____
ROOT
ATOM      1  S   LIG    1       -2.249  -3.305   0.006  0.00  0.00    +2.620 S 
ATOM      2  O   LIG    1       -2.922  -3.154  -1.237  0.00  0.00    -1.040 OA
ATOM      3  O   LIG    1       -2.898  -3.168   1.262  0.00  0.00    -1.050 OA
ENDROOT
BRANCH   1   4
ATOM      4  C   LIG    1       -1.530  -4.913  -0.010  0.00  0.00    -0.510 A 
ATOM      5  C   LIG    1       -1.204  -5.638   1.085  0.00  0.00    +0.020 A 
ATOM      6  C   LIG    1       -0.664  -6.850   0.633  0.00  0.00    -0.070 A 
ATOM      7  C   LIG    1       -0.688  -6.802  -0.744  0.00  0.00    -0.030 A 
ATOM      8  O   LIG    1       -1.224  -5.617  -1.106  0.00  0.00    -0.100 OA
BRANCH   7   9
ATOM      9  C   LIG    1       -0.223  -7.849  -1.651  0.00  0.00    +0.560 C 
ATOM     10  O   LIG    1       -0.297  -7.688  -2.863  0.00  0.00    -0.670 OA
ATOM     11  O   LIG    1        0.242  -8.889  -1.199  0.00  0.00    -0.670 OA
ENDBRANCH   7   9
ENDBRANCH   1   4
BRANCH   1  12
ATOM     12  N   LIG    1       -1.005  -2.212  -0.000  0.00  0.00    -1.140 NA
BRANCH  12  13
ATOM     13  C   LIG    1       -1.293  -0.775   0.010  0.00  0.00    +0.170 C 
BRANCH  13  17
ATOM     14  N   LIG    1       -0.016   1.344   0.009  0.00  0.00    -0.880 N 
ATOM     15  H   LIG    1       -0.863   1.817   0.016  0.00  0.00    +0.390 HD
ATOM     16  H   LIG    1        0.817   1.840   0.004  0.00  0.00    +0.380 HD
ATOM     17  C   LIG    1        0.002  -0.004   0.002  0.00  0.00    +0.530 C 
ATOM     18  O   LIG    1        1.060  -0.596  -0.011  0.00  0.00    -0.520 OA
ENDBRANCH  13  17
ENDBRANCH  12  13
ENDBRANCH   1  12
TORSDOF 5
ENDMDL
MODEL       22
REMARK  Name = ZINC000024978669
REMARK                            x       y       z     vdW  Elec       q    Type
REMARK                         _______ _______ _______ _____ _____    ______ ____
ROOT
ATOM      1  C   LIG    1       -2.396  -2.791   0.010  0.00  0.00    -0.980 C 
ENDROOT
BRANCH   1   6
ATOM      2  C   LIG    1       -0.018   1.461   0.010  0.00  0.00    +0.250 C 
ATOM      3  N   LIG    1        0.002  -0.004   0.002  0.00  0.00    -0.780 N 
ATOM      4  H   LIG    1        0.849  -0.478  -0.009  0.00  0.00    +0.380 HD
ATOM      5  C   LIG    1       -1.156  -0.694   0.009  0.00  0.00    +0.660 C 
ATOM      6  N   LIG    1       -1.137  -2.041   0.002  0.00  0.00    -0.640 N 
ATOM      7  H   LIG    1       -0.291  -2.515  -0.009  0.00  0.00    +0.370 HD
ATOM      8  O   LIG    1       -2.217  -0.100   0.023  0.00  0.00    -0.570 OA
ENDBRANCH   1   6
BRANCH   1   9
ATOM      9  P   LIG    1       -3.130  -2.729   1.678  0.00  0.00    +2.240 P 
ATOM     10  O   LIG    1       -4.476  -3.530   1.686  0.00  0.00    -1.190 OA
ATOM     11  O   LIG    1       -3.408  -1.238   2.071  0.00  0.00    -1.200 OA
ATOM     12  O   LIG    1       -2.137  -3.365   2.709  0.00  0.00    -1.190 OA
ENDBRANCH   1   9
BRANCH   1  13
ATOM     13  P   LIG    1       -2.073  -4.526  -0.447  0.00  0.00    +2.240 P 
ATOM     14  O   LIG    1       -3.419  -5.328  -0.439  0.00  0.00    -1.180 OA
ATOM     15  O   LIG    1       -1.080  -5.162   0.584  0.00  0.00    -1.180 OA
ATOM     16  O   LIG    1       -1.442  -4.580  -1.881  0.00  0.00    -1.220 OA
ENDBRANCH   1  13
TORSDOF 3
ENDMDL
MODEL       23
REMARK  Name = ZINC000006506349
REMARK                            x       y       z     vdW  Elec       q    Type
REMARK                         _______ _______ _______ _____ _____    ______ ____
ROOT
ATOM      1  C   LIG    1       -0.018   1.503   0.010  0.00  0.00    +0.110 C 
ATOM      2  C   LIG    1        0.002  -0.004   0.002  0.00  0.00    -0.110 A 
ATOM      3  N   LIG    1        0.006  -0.662  -1.126  0.00  0.00    -0.240 NA
ATOM      4  N   LIG    1        0.025  -2.063  -1.104  0.00  0.00    -0.430 NA
ATOM      5  C   LIG    1        0.039  -2.735   0.074  0.00  0.00    +0.540 A 
ATOM      6  N   LIG    1        0.036  -2.095   1.225  0.00  0.00    -0.640 NA
ATOM      7  C   LIG    1        0.024  -0.756   1.259  0.00  0.00    +0.490 A 
ATOM      8  O   LIG    1        0.021  -0.167   2.329  0.00  0.00    -0.610 OA
ENDROOT
BRANCH   5   9
ATOM      9  N   LIG    1        0.059  -4.110   0.067  0.00  0.00    -0.320 N 
ATOM     10  N   LIG    1        0.068  -4.806   1.280  0.00  0.00    -0.430 NA
ATOM     11  C   LIG    1        0.086  -6.152   1.305  0.00  0.00    +0.420 A 
ATOM     12  C   LIG    1        0.096  -6.914   0.039  0.00  0.00    -0.040 A 
ATOM     13  C   LIG    1        0.087  -6.244  -1.128  0.00  0.00    -0.060 A 
ATOM     14  O   LIG    1        0.093  -6.740   2.369  0.00  0.00    -0.640 OA
ATOM     15  C   LIG    1        0.062  -4.768  -1.108  0.00  0.00    +0.480 A 
ATOM     16  O   LIG    1        0.054  -4.146  -2.152  0.00  0.00    -0.530 OA
ENDBRANCH   5   9
TORSDOF 1
ENDMDL
MODEL       24
REMARK  Name = ZINC000002567986
REMARK                            x       y       z     vdW  Elec       q    Type
REMARK                         _______ _______ _______ _____ _____    ______ ____
ROOT
ATOM      1  CA  GLU A  2       -3.014  -2.361   0.018  0.00  0.00    +0.160 C 
ENDROOT
BRANCH   1   3
ATOM      2  C   GLY A  1       -1.412  -0.526   0.013  0.00  0.00    +0.500 C 
ATOM      3  N   GLU A  2       -1.640  -1.854   0.008  0.00  0.00    -0.690 N 
ATOM      4  H   GLU A  2       -0.894  -2.474  -0.003  0.00  0.00    +0.390 HD
ATOM      5  O   GLY A  1       -2.344   0.250   0.026  0.00  0.00    -0.550 OA
BRANCH   2   6
ATOM      6  CA  GLY A  1        0.002  -0.004   0.002  0.00  0.00    +0.200 C 
BRANCH   6   7
ATOM      7  N   GLY A  1       -0.018   1.465   0.010  0.00  0.00    -0.830 NA
ATOM      8  H1  GLY A  1       -0.556   1.823  -0.764  0.00  0.00    +0.350 HD
ATOM      9  H2  GLY A  1        0.919   1.839   0.003  0.00  0.00    +0.340 HD
ENDBRANCH   6   7
ENDBRANCH   2   6
ENDBRANCH   1   3
BRANCH   1  10
ATOM     10  C   GLU A  2       -3.515  -2.426   1.438  0.00  0.00    +0.500 C 
ATOM     11  OXT GLU A  2       -2.733  -2.625   2.352  0.00  0.00    -0.700 OA
ATOM     12  O   GLU A  2       -4.702  -2.281   1.673  0.00  0.00    -0.700 OA
ENDBRANCH   1  10
BRANCH   1  13
ATOM     13  CB  GLU A  2       -3.046  -3.761  -0.599  0.00  0.00    +0.050 C 
BRANCH  13  14
ATOM     14  CG  GLU A  2       -2.657  -3.676  -2.076  0.00  0.00    -0.080 C 
BRANCH  14  15
ATOM     15  CD  GLU A  2       -2.689  -5.055  -2.684  0.00  0.00    +0.490 C 
ATOM     16  OE2 GLU A  2       -2.409  -5.209  -3.860  0.00  0.00    -0.720 OA
ATOM     17  OE1 GLU A  2       -2.994  -6.016  -1.999  0.00  0.00    -0.700 OA
ENDBRANCH  14  15
ENDBRANCH  13  14
ENDBRANCH   1  13
TORSDOF 7
ENDMDL
MODEL       25
REMARK  Name = ZINC000020479814
REMARK                            x       y       z     vdW  Elec       q    Type
REMARK                         _______ _______ _______ _____ _____    ______ ____
ROOT
ATOM      1  C   LIG    1       -2.135   0.949   1.227  0.00  0.00    -1.240 C 
ENDROOT
BRANCH   1   2
ATOM      2  P   LIG    1       -2.110  -0.874   1.217  0.00  0.00    +2.230 P 
ATOM      3  O   LIG    1       -3.580  -1.416   1.228  0.00  0.00    -1.160 OA
ATOM      4  O   LIG    1       -1.352  -1.393   2.486  0.00  0.00    -1.200 OA
ATOM      5  O   LIG    1       -1.377  -1.379  -0.072  0.00  0.00    -1.150 OA
ENDBRANCH   1   2
BRANCH   1   6
ATOM      6  P   LIG    1       -3.016   1.553  -0.250  0.00  0.00    +2.230 P 
ATOM      7  O   LIG    1       -4.486   1.011  -0.239  0.00  0.00    -1.160 OA
ATOM      8  O   LIG    1       -2.283   1.048  -1.539  0.00  0.00    -1.150 OA
ATOM      9  O   LIG    1       -3.038   3.119  -0.241  0.00  0.00    -1.200 OA
ENDBRANCH   1   6
BRANCH   1  10
ATOM     10  C   LIG    1       -0.699   1.479   1.216  0.00  0.00    +0.210 C 
BRANCH  10  11
ATOM     11  N   LIG    1       -0.012   1.005   0.008  0.00  0.00    -0.620 N 
ATOM     12  H   LIG    1       -0.500   1.339  -0.810  0.00  0.00    +0.420 HD
ATOM     13  H   LIG    1        0.935   1.354   0.000  0.00  0.00    +0.370 HD
ATOM     14  H   LIG    1        0.002  -0.004   0.002  0.00  0.00    +0.420 HD
ENDBRANCH  10  11
ENDBRANCH   1  10
TORSDOF 4
ENDMDL
MODEL       26
REMARK  Name = ZINC000027204470
REMARK                            x       y       z     vdW  Elec       q    Type
REMARK                         _______ _______ _______ _____ _____    ______ ____
ROOT
ATOM      1  C   LIG    1       -2.135   0.949   1.227  0.00  0.00    -1.040 C 
ENDROOT
BRANCH   1   2
ATOM      2  P   LIG    1       -3.016   1.553  -0.250  0.00  0.00    +2.220 P 
ATOM      3  O   LIG    1       -4.486   1.011  -0.239  0.00  0.00    -1.140 OA
ATOM      4  O   LIG    1       -2.283   1.048  -1.539  0.00  0.00    -1.180 OA
ATOM      5  O   LIG    1       -3.038   3.119  -0.241  0.00  0.00    -1.150 OA
ENDBRANCH   1   2
BRANCH   1   6
ATOM      6  P   LIG    1       -2.988   1.537   2.727  0.00  0.00    +2.200 P 
ATOM      7  O   LIG    1       -4.492   1.102   2.676  0.00  0.00    -1.140 OA
ATOM      8  O   LIG    1       -2.898   3.099   2.800  0.00  0.00    -1.160 OA
ATOM      9  O   LIG    1       -2.307   0.914   3.993  0.00  0.00    -1.200 OA
ENDBRANCH   1   6
BRANCH   1  10
ATOM     10  O   LIG    1       -2.115  -0.480   1.219  0.00  0.00    -0.520 OA
ATOM     11  H   LIG    1       -1.661  -0.871   1.978  0.00  0.00    +0.320 HD
ENDBRANCH   1  10
BRANCH   1  12
ATOM     12  C   LIG    1       -0.699   1.479   1.216  0.00  0.00    +0.230 C 
BRANCH  12  13
ATOM     13  N   LIG    1       -0.012   1.005   0.008  0.00  0.00    -0.620 N 
ATOM     14  H   LIG    1       -0.500   1.339  -0.810  0.00  0.00    +0.420 HD
ATOM     15  H   LIG    1        0.935   1.354   0.000  0.00  0.00    +0.380 HD
ATOM     16  H   LIG    1        0.002  -0.004   0.002  0.00  0.00    +0.410 HD
ENDBRANCH  12  13
ENDBRANCH   1  12
TORSDOF 5
ENDMDL
MODEL       27
REMARK  Name = ZINC000003812862
REMARK                            x       y       z     vdW  Elec       q    Type
REMARK                         _______ _______ _______ _____ _____    ______ ____
ROOT
ATOM      1  C   LIG    1       -2.851   1.442   2.486  0.00  0.00    +0.155 C 
ENDROOT
BRANCH   1   2
ATOM      2  P   LIG    1       -4.561   0.811   2.499  0.00  0.00    +0.087 P 
ATOM      3  O   LIG    1       -5.294   1.317   3.788  0.00  0.00    -0.365 OA
ATOM      4  O   LIG    1       -4.540  -0.755   2.490  0.00  0.00    -0.365 OA
ATOM      5  O   LIG    1       -5.319   1.330   1.230  0.00  0.00    -0.365 OA
ENDBRANCH   1   2
BRANCH   1   6
ATOM      6  P   LIG    1       -2.875   3.265   2.496  0.00  0.00    +0.087 P 
ATOM      7  O   LIG    1       -3.718   3.769   3.717  0.00  0.00    -0.365 OA
ATOM      8  O   LIG    1       -3.519   3.786   1.166  0.00  0.00    -0.365 OA
ATOM      9  O   LIG    1       -1.410   3.807   2.614  0.00  0.00    -0.365 OA
ENDBRANCH   1   6
BRANCH   1  10
ATOM     10  O   LIG    1       -2.160   0.969   3.643  0.00  0.00    -0.376 OA
ATOM     11  H   LIG    1       -2.108   0.005   3.704  0.00  0.00    +0.211 HD
ENDBRANCH   1  10
BRANCH   1  12
ATOM     12  C   LIG    1       -2.135   0.949   1.227  0.00  0.00    +0.099 C 
BRANCH  12  13
ATOM     13  C   LIG    1       -0.699   1.479   1.216  0.00  0.00    +0.131 C 
BRANCH  13  14
ATOM     14  N   LIG    1       -0.012   1.005   0.008  0.00  0.00    +0.219 N 
ATOM     15  H   LIG    1       -0.500   1.339  -0.810  0.00  0.00    +0.199 HD
ATOM     16  H   LIG    1        0.935   1.354   0.000  0.00  0.00    +0.199 HD
ATOM     17  H   LIG    1        0.002  -0.004   0.002  0.00  0.00    +0.199 HD
ENDBRANCH  13  14
ENDBRANCH  12  13
ENDBRANCH   1  12
TORSDOF 6
ENDMDL
MODEL       28
REMARK  Name = ZINC000077011352
REMARK                            x       y       z     vdW  Elec       q    Type
REMARK                         _______ _______ _______ _____ _____    ______ ____
ROOT
ATOM      1  O   LIG    1        0.002  -0.004   0.002  0.00  0.00    -0.750 OA
ATOM      2  C   LIG    1       -0.016   1.336   0.009  0.00  0.00    +0.480 A 
ATOM      3  N   LIG    1       -1.188   2.002   0.030  0.00  0.00    -0.720 NA
ATOM      4  C   LIG    1       -1.213   3.334   0.037  0.00  0.00    +0.580 A 
ATOM      5  N   LIG    1       -0.091   4.052   0.025  0.00  0.00    -0.720 NA
ATOM      6  C   LIG    1        1.113   3.446   0.005  0.00  0.00    +0.480 A 
ATOM      7  O   LIG    1        2.238   4.174  -0.007  0.00  0.00    -0.750 OA
ATOM      8  C   LIG    1        1.174   2.056   0.002  0.00  0.00    -0.500 A 
ENDROOT
BRANCH   4   9
ATOM      9  N   LIG    1       -2.419   3.979   0.058  0.00  0.00    -0.600 N 
ATOM     10  C   LIG    1       -3.682   3.224   0.078  0.00  0.00    +0.260 C 
ATOM     11  C   LIG    1       -4.552   3.768   1.217  0.00  0.00    +0.190 C 
ATOM     12  O   LIG    1       -4.662   5.188   1.088  0.00  0.00    -0.400 OA
ATOM     13  C   LIG    1       -3.419   5.885   1.200  0.00  0.00    +0.190 C 
ATOM     14  C   LIG    1       -2.491   5.449   0.067  0.00  0.00    +0.260 C 
ENDBRANCH   4   9
BRANCH   8  15
ATOM     15  C   LIG    1        2.503   1.345  -0.021  0.00  0.00    +0.090 C 
BRANCH  15  16
ATOM     16  C   LIG    1        2.917   0.991   1.409  0.00  0.00    +0.160 C 
BRANCH  16  17
ATOM     17  O   LIG    1        4.176   0.317   1.388  0.00  0.00    -0.590 OA
ATOM     18  H   LIG    1        4.501   0.062   2.262  0.00  0.00    +0.350 HD
ENDBRANCH  16  17
ENDBRANCH  15  16
ENDBRANCH   8  15
TORSDOF 4
ENDMDL
MODEL       29
REMARK  Name = ZINC000003801919
REMARK                            x       y       z     vdW  Elec       q    Type
REMARK                         _______ _______ _______ _____ _____    ______ ____
ROOT
ATOM      1  C   LIG    1       -4.286   0.913   2.497  0.00  0.00    -1.040 C 
ENDROOT
BRANCH   1   2
ATOM      2  P   LIG    1       -5.168   1.517   1.020  0.00  0.00    +2.260 P 
ATOM      3  O   LIG    1       -6.638   0.975   1.031  0.00  0.00    -1.170 OA
ATOM      4  O   LIG    1       -4.434   1.012  -0.269  0.00  0.00    -1.200 OA
ATOM      5  O   LIG    1       -5.189   3.083   1.028  0.00  0.00    -1.180 OA
ENDBRANCH   1   2
BRANCH   1   6
ATOM      6  P   LIG    1       -5.139   1.501   3.997  0.00  0.00    +2.220 P 
ATOM      7  O   LIG    1       -6.644   1.066   3.946  0.00  0.00    -1.160 OA
ATOM      8  O   LIG    1       -5.049   3.063   4.070  0.00  0.00    -1.180 OA
ATOM      9  O   LIG    1       -4.458   0.878   5.263  0.00  0.00    -1.220 OA
ENDBRANCH   1   6
BRANCH   1  10
ATOM     10  O   LIG    1       -4.267  -0.516   2.489  0.00  0.00    -0.520 OA
ATOM     11  H   LIG    1       -3.812  -0.907   3.248  0.00  0.00    +0.300 HD
ENDBRANCH   1  10
BRANCH   1  12
ATOM     12  C   LIG    1       -2.851   1.442   2.486  0.00  0.00    +0.010 C 
BRANCH  12  13
ATOM     13  C   LIG    1       -2.135   0.949   1.227  0.00  0.00    +0.030 C 
BRANCH  13  14
ATOM     14  C   LIG    1       -0.699   1.479   1.216  0.00  0.00    +0.220 C 
BRANCH  14  15
ATOM     15  N   LIG    1       -0.012   1.005   0.008  0.00  0.00    -0.630 N 
ATOM     16  H   LIG    1       -0.500   1.339  -0.810  0.00  0.00    +0.440 HD
ATOM     17  H   LIG    1        0.935   1.354   0.000  0.00  0.00    +0.410 HD
ATOM     18  H   LIG    1        0.002  -0.004   0.002  0.00  0.00    +0.420 HD
ENDBRANCH  14  15
ENDBRANCH  13  14
ENDBRANCH  12  13
ENDBRANCH   1  12
TORSDOF 7
ENDMDL
MODEL       30
REMARK  Name = ZINC000009420343
REMARK                            x       y       z     vdW  Elec       q    Type
REMARK                         _______ _______ _______ _____ _____    ______ ____
ROOT
ATOM      1  C   LIG    1       -2.518  -0.354   0.013  0.00  0.00    +0.170 C 
ATOM      2  C   LIG    1       -3.147  -0.750  -1.310  0.00  0.00    +0.510 C 
ATOM      3  N   LIG    1       -4.231  -1.553  -1.270  0.00  0.00    -0.730 NA
ATOM      4  C   LIG    1       -4.745  -1.993  -0.115  0.00  0.00    +0.680 C 
ATOM      5  N   LIG    1       -4.261  -1.698   1.097  0.00  0.00    -0.700 N 
ATOM      6  H   LIG    1       -4.700  -2.063   1.880  0.00  0.00    +0.380 HD
ATOM      7  O   LIG    1       -5.722  -2.712  -0.172  0.00  0.00    -0.620 OA
ATOM      8  O   LIG    1       -2.692  -0.360  -2.364  0.00  0.00    -0.550 OA
ATOM      9  C   LIG    1       -3.179  -0.907   1.261  0.00  0.00    +0.530 C 
ATOM     10  O   LIG    1       -2.752  -0.648   2.366  0.00  0.00    -0.530 OA
ENDROOT
BRANCH   1  13
ATOM     11  C   LIG    1       -0.018   1.503   0.010  0.00  0.00    +0.110 C 
ATOM     12  C   LIG    1        0.002  -0.004   0.002  0.00  0.00    +0.130 A 
ATOM     13  C   LIG    1       -1.081  -0.807   0.003  0.00  0.00    -0.420 A 
ATOM     14  C   LIG    1       -0.633  -2.149  -0.008  0.00  0.00    +0.490 A 
ATOM     15  N   LIG    1        0.716  -2.129  -0.014  0.00  0.00    -0.570 N 
ATOM     16  H   LIG    1        1.300  -2.903  -0.021  0.00  0.00    +0.400 HD
ATOM     17  O   LIG    1       -1.337  -3.142  -0.011  0.00  0.00    -0.650 OA
ATOM     18  N   LIG    1        1.121  -0.787  -0.013  0.00  0.00    -0.450 NA
ENDBRANCH   1  13
BRANCH   1  19
ATOM     19  O   LIG    1       -2.531   1.072   0.097  0.00  0.00    -0.520 OA
ATOM     20  H   LIG    1       -3.418   1.458   0.110  0.00  0.00    +0.350 HD
ENDBRANCH   1  19
TORSDOF 2
ENDMDL
MODEL       31
REMARK  Name = ZINC000087440075
REMARK                            x       y       z     vdW  Elec       q    Type
REMARK                         _______ _______ _______ _____ _____    ______ ____
ROOT
ATOM      1  C   LIG    1       -1.330   1.951   0.019  0.00  0.00    +0.130 C 
ATOM      2  C   LIG    1       -1.556   2.641  -1.343  0.00  0.00    +0.040 C 
ATOM      3  C   LIG    1       -3.077   2.450  -1.581  0.00  0.00    +0.010 C 
ATOM      4  C   LIG    1       -3.314   1.048  -0.967  0.00  0.00    +0.260 C 
ATOM      5  N   LIG    1       -2.433   1.000   0.218  0.00  0.00    -0.580 N 
ATOM      6  C   LIG    1       -2.611   0.213   1.298  0.00  0.00    +0.640 C 
ATOM      7  O   LIG    1       -1.819   0.256   2.218  0.00  0.00    -0.540 OA
ENDROOT
BRANCH   6   8
ATOM      8  C   LIG    1       -3.771  -0.705   1.362  0.00  0.00    +0.040 A 
ATOM      9  N   LIG    1       -4.714  -0.865   0.433  0.00  0.00    -0.350 NA
ATOM     10  N   LIG    1       -5.542  -1.752   0.869  0.00  0.00    -0.200 NA
ATOM     11  N   LIG    1       -5.159  -2.154   2.030  0.00  0.00    -0.200 NA
ATOM     12  N   LIG    1       -4.076  -1.537   2.358  0.00  0.00    -0.330 NA
ENDBRANCH   6   8
BRANCH   1  14
ATOM     13  O   LIG    1        0.002  -0.004   0.002  0.00  0.00    -0.670 OA
ATOM     14  C   LIG    1       -0.015   1.215   0.009  0.00  0.00    +0.500 C 
ATOM     15  O   LIG    1        1.033   1.839   0.002  0.00  0.00    -0.720 OA
ENDBRANCH   1  14
TORSDOF 2
ENDMDL
MODEL       32
REMARK  Name = ZINC000019366645
REMARK                            x       y       z     vdW  Elec       q    Type
REMARK                         _______ _______ _______ _____ _____    ______ ____
ROOT
ATOM      1  N   LIG    1       -2.367   0.914   0.095  0.00  0.00    -0.520 NA
ATOM      2  C   LIG    1       -2.068  -0.198  -0.819  0.00  0.00    +0.150 C 
ATOM      3  C   LIG    1       -3.127  -1.290  -0.653  0.00  0.00    +0.150 C 
ATOM      4  N   LIG    1       -4.456  -0.727  -0.930  0.00  0.00    -0.520 NA
ATOM      5  C   LIG    1       -4.755   0.385  -0.016  0.00  0.00    +0.180 C 
ATOM      6  C   LIG    1       -3.696   1.477  -0.183  0.00  0.00    +0.180 C 
ENDROOT
BRANCH   1   7
ATOM      7  C   LIG    1       -1.330   1.951   0.019  0.00  0.00    +0.070 C 
BRANCH   7   9
ATOM      8  O   LIG    1       -2.380   2.742   1.985  0.00  0.00    -0.670 OA
ATOM      9  C   LIG    1       -1.530   2.944   1.134  0.00  0.00    +0.500 C 
ATOM     10  O   LIG    1       -0.840   3.948   1.188  0.00  0.00    -0.720 OA
ENDBRANCH   7   9
ENDBRANCH   1   7
BRANCH   4  11
ATOM     11  C   LIG    1       -5.494  -1.764  -0.855  0.00  0.00    +0.070 C 
BRANCH  11  12
ATOM     12  C   LIG    1       -6.795  -1.212  -1.379  0.00  0.00    +0.500 C 
ATOM     13  O   LIG    1       -7.790  -1.917  -1.404  0.00  0.00    -0.720 OA
ATOM     14  O   LIG    1       -6.852  -0.062  -1.779  0.00  0.00    -0.670 OA
ENDBRANCH  11  12
ENDBRANCH   4  11
TORSDOF 4
ENDMDL
MODEL       33
REMARK  Name = ZINC000001087922
REMARK                            x       y       z     vdW  Elec       q    Type
REMARK                         _______ _______ _______ _____ _____    ______ ____
ROOT
ATOM      1  C   LIG    1       -1.305   1.940   0.019  0.00  0.00    -0.090 A 
ATOM      2  N   LIG    1       -1.523   3.239   0.021  0.00  0.00    -0.360 NA
ATOM      3  O   LIG    1       -2.714   3.444   0.030  0.00  0.00    +0.230 OA
ATOM      4  N   LIG    1       -3.423   2.466   0.035  0.00  0.00    -0.570 NA
ATOM      5  C   LIG    1       -2.678   1.385   0.022  0.00  0.00    +0.300 A 
ENDROOT
BRANCH   1   7
ATOM      6  O   LIG    1        0.002  -0.004   0.002  0.00  0.00    -0.660 OA
ATOM      7  C   LIG    1       -0.015   1.218   0.009  0.00  0.00    +0.570 C 
ATOM      8  O   LIG    1        1.036   1.844   0.002  0.00  0.00    -0.700 OA
ENDBRANCH   1   7
BRANCH   5   9
ATOM      9  N   LIG    1       -3.077   0.056   0.022  0.00  0.00    -0.700 NA
BRANCH   9  10
ATOM     10  C   LIG    1       -4.502  -0.281   0.038  0.00  0.00    +0.410 C 
BRANCH  10  11
ATOM     11  N   LIG    1       -4.660  -1.738   0.035  0.00  0.00    -0.250 N 
ATOM     12  C   LIG    1       -4.832  -2.526   1.112  0.00  0.00    +0.370 A 
ATOM     13  N   LIG    1       -4.929  -3.755   0.668  0.00  0.00    -0.330 NA
ATOM     14  N   LIG    1       -4.822  -3.724  -0.616  0.00  0.00    -0.120 NA
ATOM     15  N   LIG    1       -4.665  -2.506  -1.002  0.00  0.00    -0.090 NA
ENDBRANCH  10  11
ENDBRANCH   9  10
ENDBRANCH   5   9
TORSDOF 4
ENDMDL
MODEL       34
REMARK  Name = ZINC000020244589
REMARK                            x       y       z     vdW  Elec       q    Type
REMARK                         _______ _______ _______ _____ _____    ______ ____
ROOT
ATOM      1  C   LIG    1       -4.810   0.450  -0.084  0.00  0.00    -0.340 A 
ATOM      2  C   LIG    1       -6.120   0.876  -0.186  0.00  0.00    +0.360 A 
ATOM      3  N   LIG    1       -7.113  -0.045  -0.287  0.00  0.00    -0.660 N 
ATOM      4  H   LIG    1       -8.033   0.255  -0.359  0.00  0.00    +0.390 HD
ATOM      5  C   LIG    1       -6.851  -1.362  -0.290  0.00  0.00    +0.640 A 
ATOM      6  N   LIG    1       -5.600  -1.842  -0.194  0.00  0.00    -0.690 NA
ATOM      7  O   LIG    1       -7.776  -2.145  -0.383  0.00  0.00    -0.620 OA
ATOM      8  C   LIG    1       -4.550  -0.999  -0.095  0.00  0.00    +0.530 A 
ATOM      9  O   LIG    1       -3.414  -1.427  -0.008  0.00  0.00    -0.560 OA
ENDROOT
BRANCH   1  12
ATOM     10  N   LIG    1       -2.430   0.985   0.012  0.00  0.00    -0.690 N 
ATOM     11  H   LIG    1       -2.239   0.034   0.002  0.00  0.00    +0.430 HD
ATOM     12  C   LIG    1       -3.707   1.416   0.027  0.00  0.00    +0.570 C 
ATOM     13  O   LIG    1       -3.947   2.603   0.133  0.00  0.00    -0.610 OA
BRANCH  10  14
ATOM     14  C   LIG    1       -1.330   1.953   0.009  0.00  0.00    +0.170 C 
BRANCH  14  16
ATOM     15  O   LIG    1        0.003  -0.001  -0.019  0.00  0.00    -0.680 OA
ATOM     16  C   LIG    1       -0.014   1.218  -0.009  0.00  0.00    +0.490 C 
ATOM     17  O   LIG    1        1.032   1.843  -0.018  0.00  0.00    -0.710 OA
ENDBRANCH  14  16
ENDBRANCH  10  14
ENDBRANCH   1  12
TORSDOF 3
ENDMDL
MODEL       35
REMARK  Name = ZINC000098209796
REMARK                            x       y       z     vdW  Elec       q    Type
REMARK                         _______ _______ _______ _____ _____    ______ ____
ROOT
ATOM      1  N   LIG    1       -2.430   0.984   0.019  0.00  0.00    -0.250 N 
ATOM      2  C   LIG    1       -3.439   0.931   0.919  0.00  0.00    +0.100 A 
ATOM      3  C   LIG    1       -4.225  -0.106   0.544  0.00  0.00    -0.020 A 
ATOM      4  N   LIG    1       -3.665  -0.630  -0.551  0.00  0.00    -0.290 NA
ATOM      5  N   LIG    1       -2.606   0.041  -0.840  0.00  0.00    -0.050 NA
ENDROOT
BRANCH   1   6
ATOM      6  C   LIG    1       -1.330   1.951   0.019  0.00  0.00    +0.230 C 
BRANCH   6   8
ATOM      7  O   LIG    1        0.002  -0.004   0.002  0.00  0.00    -0.660 OA
ATOM      8  C   LIG    1       -0.015   1.215   0.009  0.00  0.00    +0.490 C 
ATOM      9  O   LIG    1        1.033   1.839   0.002  0.00  0.00    -0.690 OA
ENDBRANCH   6   8
ENDBRANCH   1   6
BRANCH   3  10
ATOM     10  C   LIG    1       -5.483  -0.577   1.228  0.00  0.00    +0.150 C 
BRANCH  10  11
ATOM     11  C   LIG    1       -6.631  -0.606   0.217  0.00  0.00    +0.140 C 
ATOM     12  N   LIG    1       -6.398  -1.643  -0.802  0.00  0.00    -0.760 N 
ATOM     13  H   LIG    1       -5.657  -1.686  -1.427  0.00  0.00    +0.410 HD
ATOM     14  C   LIG    1       -7.414  -2.519  -0.700  0.00  0.00    +0.650 C 
ATOM     15  N   LIG    1       -8.283  -2.183   0.261  0.00  0.00    -0.730 NA
ATOM     16  O   LIG    1       -7.530  -3.505  -1.401  0.00  0.00    -0.630 OA
ATOM     17  C   LIG    1       -7.919  -1.042   0.887  0.00  0.00    +0.490 C 
ATOM     18  O   LIG    1       -8.501  -0.488   1.795  0.00  0.00    -0.580 OA
ENDBRANCH  10  11
ENDBRANCH   3  10
TORSDOF 4
ENDMDL
MODEL       36
REMARK  Name = ZINC000098209797
REMARK                            x       y       z     vdW  Elec       q    Type
REMARK                         _______ _______ _______ _____ _____    ______ ____
ROOT
ATOM      1  N   LIG    1       -2.430   0.984   0.019  0.00  0.00    -0.250 N 
ATOM      2  C   LIG    1       -3.439   0.931   0.919  0.00  0.00    +0.110 A 
ATOM      3  C   LIG    1       -4.225  -0.106   0.544  0.00  0.00    -0.020 A 
ATOM      4  N   LIG    1       -3.665  -0.630  -0.551  0.00  0.00    -0.290 NA
ATOM      5  N   LIG    1       -2.606   0.041  -0.840  0.00  0.00    -0.050 NA
ENDROOT
BRANCH   1   6
ATOM      6  C   LIG    1       -1.330   1.951   0.019  0.00  0.00    +0.230 C 
BRANCH   6   8
ATOM      7  O   LIG    1        0.002  -0.004   0.002  0.00  0.00    -0.660 OA
ATOM      8  C   LIG    1       -0.015   1.215   0.009  0.00  0.00    +0.490 C 
ATOM      9  O   LIG    1        1.033   1.839   0.002  0.00  0.00    -0.690 OA
ENDBRANCH   6   8
ENDBRANCH   1   6
BRANCH   3  10
ATOM     10  C   LIG    1       -5.483  -0.577   1.228  0.00  0.00    +0.150 C 
BRANCH  10  11
ATOM     11  C   LIG    1       -6.631  -0.606   0.217  0.00  0.00    +0.150 C 
ATOM     12  N   LIG    1       -6.978   0.759  -0.213  0.00  0.00    -0.770 N 
ATOM     13  H   LIG    1       -6.398   1.387  -0.672  0.00  0.00    +0.400 HD
ATOM     14  C   LIG    1       -8.255   0.966   0.155  0.00  0.00    +0.660 C 
ATOM     15  N   LIG    1       -8.787  -0.094   0.773  0.00  0.00    -0.730 NA
ATOM     16  O   LIG    1       -8.858   2.001  -0.051  0.00  0.00    -0.630 OA
ATOM     17  C   LIG    1       -7.903  -1.111   0.870  0.00  0.00    +0.490 C 
ATOM     18  O   LIG    1       -8.089  -2.198   1.374  0.00  0.00    -0.570 OA
ENDBRANCH  10  11
ENDBRANCH   3  10
TORSDOF 4
ENDMDL
MODEL       37
REMARK  Name = ZINC000002106570
REMARK                            x       y       z     vdW  Elec       q    Type
REMARK                         _______ _______ _______ _____ _____    ______ ____
ROOT
ATOM      1  N   LIG    1       -4.915   0.721   0.029  0.00  0.00    -0.710 N 
ATOM      2  H   LIG    1       -4.724  -0.231   0.023  0.00  0.00    +0.410 HD
ATOM      3  C   LIG    1       -6.191   1.153   0.038  0.00  0.00    +0.560 C 
ATOM      4  O   LIG    1       -6.429   2.344   0.045  0.00  0.00    -0.550 OA
ENDROOT
BRANCH   3   5
ATOM      5  C   LIG    1       -7.306   0.173   0.038  0.00  0.00    +0.120 A 
ATOM      6  C   LIG    1       -7.046  -1.160   0.035  0.00  0.00    -0.130 A 
ATOM      7  C   LIG    1       -8.180  -2.092   0.035  0.00  0.00    +0.510 A 
ATOM      8  N   LIG    1       -9.433  -1.592   0.038  0.00  0.00    -0.690 NA
ATOM      9  C   LIG    1       -9.636  -0.263   0.040  0.00  0.00    +0.650 A 
ATOM     10  O   LIG    1      -10.775   0.162   0.043  0.00  0.00    -0.620 OA
ATOM     11  O   LIG    1       -7.993  -3.294   0.033  0.00  0.00    -0.590 OA
ATOM     12  N   LIG    1       -8.613   0.608   0.046  0.00  0.00    -0.650 N 
ATOM     13  H   LIG    1       -8.798   1.560   0.048  0.00  0.00    +0.400 HD
ENDBRANCH   3   5
BRANCH   1  14
ATOM     14  C   LIG    1       -3.814   1.688   0.029  0.00  0.00    +0.240 C 
BRANCH  14  15
ATOM     15  C   LIG    1       -2.479   0.941   0.019  0.00  0.00    +0.030 C 
BRANCH  15  16
ATOM     16  C   LIG    1       -1.330   1.951   0.019  0.00  0.00    -0.060 C 
BRANCH  16  18
ATOM     17  O   LIG    1        0.002  -0.004   0.002  0.00  0.00    -0.700 OA
ATOM     18  C   LIG    1       -0.015   1.215   0.009  0.00  0.00    +0.490 C 
ATOM     19  O   LIG    1        1.033   1.839   0.002  0.00  0.00    -0.710 OA
ENDBRANCH  16  18
ENDBRANCH  15  16
ENDBRANCH  14  15
ENDBRANCH   1  14
TORSDOF 5
ENDMDL
MODEL       38
REMARK  Name = ZINC000101379188
REMARK                            x       y       z     vdW  Elec       q    Type
REMARK                         _______ _______ _______ _____ _____    ______ ____
ROOT
ATOM      1  C   LIG    1       -0.018   1.461   0.010  0.00  0.00    +0.300 C 
ATOM      2  N   LIG    1        0.002  -0.004   0.002  0.00  0.00    -0.550 N 
ATOM      3  C   LIG    1        0.006  -0.665  -1.169  0.00  0.00    +0.670 A 
ATOM      4  N   LIG    1        0.024  -2.001  -1.271  0.00  0.00    -0.710 NA
ATOM      5  C   LIG    1        0.040  -2.804  -0.183  0.00  0.00    +0.560 A 
ATOM      6  C   LIG    1        0.038  -2.162   1.145  0.00  0.00    -0.140 A 
ATOM      7  N   LIG    1        0.052  -2.837   2.267  0.00  0.00    -0.130 NA
ATOM      8  N   LIG    1        0.049  -2.207   3.393  0.00  0.00    -0.370 NA
ATOM      9  C   LIG    1        0.030  -0.867   3.467  0.00  0.00    +0.430 A 
ATOM     10  N   LIG    1        0.015  -0.101   2.369  0.00  0.00    -0.540 NA
ATOM     11  S   LIG    1        0.027  -0.117   5.006  0.00  0.00    -0.760 S 
ATOM     12  O   LIG    1        0.057  -4.014  -0.296  0.00  0.00    -0.560 OA
ATOM     13  O   LIG    1       -0.008  -0.013  -2.194  0.00  0.00    -0.610 OA
ATOM     14  C   LIG    1        0.023  -0.692   1.190  0.00  0.00    +0.400 A 
ENDROOT
TORSDOF 0
ENDMDL
MODEL       39
REMARK  Name = ZINC000005479804
REMARK                            x       y       z     vdW  Elec       q    Type
REMARK                         _______ _______ _______ _____ _____    ______ ____
ROOT
ATOM      1  N   LIG    1       -3.597   1.619   0.034  0.00  0.00    -0.470 NA
ENDROOT
BRANCH   1   2
ATOM      2  C   LIG    1       -2.213   1.135   0.113  0.00  0.00    +0.140 C 
BRANCH   2   3
ATOM      3  C   LIG    1       -1.254   2.327   0.096  0.00  0.00    -0.050 C 
BRANCH   3   5
ATOM      4  O   LIG    1        0.391   0.634   0.243  0.00  0.00    -0.710 OA
ATOM      5  C   LIG    1        0.167   1.831   0.177  0.00  0.00    +0.500 C 
ATOM      6  O   LIG    1        1.091   2.625   0.172  0.00  0.00    -0.730 OA
ENDBRANCH   3   5
ENDBRANCH   2   3
ENDBRANCH   1   2
BRANCH   1   7
ATOM      7  C   LIG    1       -3.960   2.377   1.239  0.00  0.00    -0.500 C 
BRANCH   7   8
ATOM      8  P   LIG    1       -5.296   3.551   0.840  0.00  0.00    +2.250 P 
ATOM      9  O   LIG    1       -5.627   4.416   2.103  0.00  0.00    -1.210 OA
ATOM     10  O   LIG    1       -6.574   2.757   0.401  0.00  0.00    -1.190 OA
ATOM     11  O   LIG    1       -4.837   4.488  -0.329  0.00  0.00    -1.180 OA
ENDBRANCH   7   8
ENDBRANCH   1   7
BRANCH   1  12
ATOM     12  C   LIG    1       -4.532   0.508  -0.190  0.00  0.00    +0.080 C 
BRANCH  12  13
ATOM     13  C   LIG    1       -4.468   0.081  -1.634  0.00  0.00    +0.510 C 
ATOM     14  O   LIG    1       -5.224  -0.780  -2.049  0.00  0.00    -0.750 OA
ATOM     15  O   LIG    1       -3.659   0.597  -2.387  0.00  0.00    -0.680 OA
ENDBRANCH  12  13
ENDBRANCH   1  12
TORSDOF 7
ENDMDL
MODEL       40
REMARK  Name = ZINC000000969509
REMARK                            x       y       z     vdW  Elec       q    Type
REMARK                         _______ _______ _______ _____ _____    ______ ____
ROOT
ATOM      1  CA  LIG    1       -4.821   0.436   0.027  0.00  0.00    +0.120 A 
ATOM      2  C   LIG    1       -4.561  -0.897   0.024  0.00  0.00    -0.120 A 
ATOM      3  C   LIG    1       -5.696  -1.829   0.025  0.00  0.00    +0.520 A 
ATOM      4  N   LIG    1       -6.949  -1.329   0.027  0.00  0.00    -0.700 NA
ATOM      5  C   LIG    1       -7.151   0.000   0.030  0.00  0.00    +0.650 A 
ATOM      6  O   LIG    1       -8.290   0.425   0.033  0.00  0.00    -0.620 OA
ATOM      7  O   LIG    1       -5.509  -3.031   0.022  0.00  0.00    -0.590 OA
ATOM      8  N   LIG    1       -6.128   0.871   0.036  0.00  0.00    -0.650 N 
ATOM      9  H   LIG    1       -6.314   1.823   0.038  0.00  0.00    +0.400 HD
ENDROOT
BRANCH   1  12
ATOM     10  N   LIG    1       -2.430   0.984   0.019  0.00  0.00    -0.690 N 
ATOM     11  H   LIG    1       -2.240   0.033   0.013  0.00  0.00    +0.410 HD
ATOM     12  C   LIG    1       -3.707   1.416   0.027  0.00  0.00    +0.550 C 
ATOM     13  O   LIG    1       -3.945   2.607   0.035  0.00  0.00    -0.560 OA
BRANCH  10  14
ATOM     14  CA  LIG    1       -1.330   1.951   0.019  0.00  0.00    +0.190 C 
BRANCH  14  16
ATOM     15  O   LIG    1        0.002  -0.004   0.002  0.00  0.00    -0.690 OA
ATOM     16  C   LIG    1       -0.015   1.215   0.009  0.00  0.00    +0.490 C 
ATOM     17  OXT LIG    1        1.033   1.839   0.002  0.00  0.00    -0.700 OA
ENDBRANCH  14  16
ENDBRANCH  10  14
ENDBRANCH   1  12
TORSDOF 3
ENDMDL
MODEL       41
REMARK  Name = ZINC000521399619
REMARK                            x       y       z     vdW  Elec       q    Type
REMARK                         _______ _______ _______ _____ _____    ______ ____
ROOT
ATOM      1  C   LIG    1       -1.256  -0.757   0.121  0.00  0.00    -0.400 A 
ATOM      2  C   LIG    1       -1.252  -2.134   0.225  0.00  0.00    +0.390 A 
ATOM      3  N   LIG    1       -2.434  -2.796   0.333  0.00  0.00    -0.540 N 
ATOM      4  C   LIG    1       -3.606  -2.142   0.343  0.00  0.00    +0.640 A 
ATOM      5  N   LIG    1       -3.678  -0.803   0.246  0.00  0.00    -0.700 NA
ATOM      6  O   LIG    1       -4.635  -2.780   0.443  0.00  0.00    -0.600 OA
ATOM      7  C   LIG    1       -2.554  -0.064   0.140  0.00  0.00    +0.540 A 
ATOM      8  O   LIG    1       -2.613   1.149   0.052  0.00  0.00    -0.610 OA
ENDROOT
BRANCH   1  12
ATOM      9  N   LIG    1       -0.015   1.343   0.016  0.00  0.00    -0.850 N 
ATOM     10  H   LIG    1       -0.861   1.818   0.026  0.00  0.00    +0.420 HD
ATOM     11  H   LIG    1        0.819   1.839   0.013  0.00  0.00    +0.380 HD
ATOM     12  C   LIG    1        0.002  -0.004   0.002  0.00  0.00    +0.600 C 
ATOM     13  O   LIG    1        1.058  -0.598  -0.109  0.00  0.00    -0.600 OA
ENDBRANCH   1  12
BRANCH   3  14
ATOM     14  C   LIG    1       -2.429  -4.257   0.443  0.00  0.00    +0.300 C 
BRANCH  14  15
ATOM     15  C   LIG    1       -2.355  -4.657   1.918  0.00  0.00    -0.060 C 
BRANCH  15  16
ATOM     16  C   LIG    1       -2.349  -6.160   2.030  0.00  0.00    +0.500 C 
ATOM     17  O   LIG    1       -2.295  -6.689   3.128  0.00  0.00    -0.710 OA
ATOM     18  O   LIG    1       -2.400  -6.847   1.024  0.00  0.00    -0.700 OA
ENDBRANCH  15  16
ENDBRANCH  14  15
ENDBRANCH   3  14
TORSDOF 4
ENDMDL
MODEL       42
REMARK  Name = ZINC000001718548
REMARK                            x       y       z     vdW  Elec       q    Type
REMARK                         _______ _______ _______ _____ _____    ______ ____
ROOT
ATOM      1  C   UNK    1       -1.429  -0.534   0.112  0.00  0.00    +0.230 C 
ENDROOT
BRANCH   1   2
ATOM      2  C   UNK    1        0.002  -0.004   0.002  0.00  0.00    +0.100 C 
BRANCH   2   3
ATOM      3  N   UNK    1       -0.018   1.465   0.010  0.00  0.00    -0.820 NA
ATOM      4  H   UNK    1       -0.556   1.823  -0.764  0.00  0.00    +0.330 HD
ATOM      5  H   UNK    1        0.919   1.839   0.003  0.00  0.00    +0.330 HD
ENDBRANCH   2   3
BRANCH   2   6
ATOM      6  C   UNK    1        0.621  -0.491  -1.283  0.00  0.00    +0.470 C 
ATOM      7  O   UNK    1        0.841   0.294  -2.189  0.00  0.00    -0.690 OA
ATOM      8  O   UNK    1        0.900  -1.670  -1.417  0.00  0.00    -0.690 OA
ENDBRANCH   2   6
ENDBRANCH   1   2
BRANCH   1   9
ATOM      9  O   UNK    1       -1.984  -0.165   1.402  0.00  0.00    -0.350 OA
BRANCH   9  10
ATOM     10  C   UNK    1       -3.242  -0.557   1.659  0.00  0.00    +0.450 C 
ATOM     11  O   UNK    1       -3.858  -1.188   0.834  0.00  0.00    -0.530 OA
BRANCH  10  12
ATOM     12  C   UNK    1       -3.884  -0.210   2.978  0.00  0.00    +0.110 C 
BRANCH  12  13
ATOM     13  C   UNK    1       -5.308  -0.770   3.014  0.00  0.00    -0.050 C 
BRANCH  13  14
ATOM     14  C   UNK    1       -5.950  -0.423   4.332  0.00  0.00    +0.490 C 
ATOM     15  O   UNK    1       -7.093  -0.780   4.566  0.00  0.00    -0.710 OA
ATOM     16  O   UNK    1       -5.328   0.213   5.165  0.00  0.00    -0.700 OA
ENDBRANCH  13  14
ENDBRANCH  12  13
ENDBRANCH  10  12
ENDBRANCH   9  10
ENDBRANCH   1   9
TORSDOF 8
ENDMDL
MODEL       43
REMARK  Name = ZINC000001731776
REMARK                            x       y       z     vdW  Elec       q    Type
REMARK                         _______ _______ _______ _____ _____    ______ ____
ROOT
ATOM      1  CA  GLU A  1        0.002  -0.004   0.002  0.00  0.00    +0.170 C 
ENDROOT
BRANCH   1   2
ATOM      2  C   GLU A  1        0.621  -0.491  -1.283  0.00  0.00    +0.470 C 
ATOM      3  N   GLY A  2        1.114  -1.743  -1.362  0.00  0.00    -0.700 N 
ATOM      4  H   GLY A  2        1.071  -2.330  -0.591  0.00  0.00    +0.410 HD
ATOM      5  O   GLU A  1        0.674   0.243  -2.247  0.00  0.00    -0.580 OA
BRANCH   3   6
ATOM      6  CA  GLY A  2        1.715  -2.216  -2.611  0.00  0.00    +0.170 C 
BRANCH   6   7
ATOM      7  C   GLY A  2        2.185  -3.637  -2.435  0.00  0.00    +0.490 C 
ATOM      8  OXT GLY A  2        2.719  -4.222  -3.363  0.00  0.00    -0.700 OA
ATOM      9  O   GLY A  2        2.032  -4.202  -1.366  0.00  0.00    -0.690 OA
ENDBRANCH   6   7
ENDBRANCH   3   6
ENDBRANCH   1   2
BRANCH   1  10
ATOM     10  N   GLU A  1       -0.018   1.465   0.010  0.00  0.00    -0.810 NA
ATOM     11  H1  GLU A  1       -0.556   1.823  -0.764  0.00  0.00    +0.350 HD
ATOM     12  H2  GLU A  1        0.919   1.839   0.003  0.00  0.00    +0.330 HD
ENDBRANCH   1  10
BRANCH   1  13
ATOM     13  CB  GLU A  1       -1.429  -0.534   0.112  0.00  0.00    +0.050 C 
BRANCH  13  14
ATOM     14  CG  GLU A  1       -2.014  -0.145   1.472  0.00  0.00    -0.050 C 
BRANCH  14  15
ATOM     15  CD  GLU A  1       -3.423  -0.667   1.580  0.00  0.00    +0.490 C 
ATOM     16  OE2 GLU A  1       -4.072  -0.464   2.592  0.00  0.00    -0.720 OA
ATOM     17  OE1 GLU A  1       -3.914  -1.292   0.656  0.00  0.00    -0.700 OA
ENDBRANCH  14  15
ENDBRANCH  13  14
ENDBRANCH   1  13
TORSDOF 7
ENDMDL
MODEL       44
REMARK  Name = ZINC000001856588
REMARK                            x       y       z     vdW  Elec       q    Type
REMARK                         _______ _______ _______ _____ _____    ______ ____
ROOT
ATOM      1  C   LIG    1        1.435   1.601   2.510  0.00  0.00    +0.020 C 
ENDROOT
BRANCH   1   2
ATOM      2  C   LIG    1        2.163   1.101   3.731  0.00  0.00    +0.490 C 
ATOM      3  N   LIG    1        3.418   1.524   3.987  0.00  0.00    -0.690 N 
ATOM      4  H   LIG    1        3.851   2.149   3.385  0.00  0.00    +0.390 HD
ATOM      5  O   LIG    1        1.621   0.320   4.484  0.00  0.00    -0.530 OA
BRANCH   3   6
ATOM      6  C   LIG    1        4.126   1.038   5.174  0.00  0.00    -0.370 C 
BRANCH   6   7
ATOM      7  P   LIG    1        5.165  -0.389   4.720  0.00  0.00    +2.190 P 
ATOM      8  O   LIG    1        5.823  -0.987   6.010  0.00  0.00    -1.180 OA
ATOM      9  O   LIG    1        6.286   0.075   3.729  0.00  0.00    -1.180 OA
ATOM     10  O   LIG    1        4.279  -1.482   4.031  0.00  0.00    -1.160 OA
ENDBRANCH   6   7
ENDBRANCH   3   6
ENDBRANCH   1   2
BRANCH   1  11
ATOM     11  C   LIG    1        0.041   0.972   2.456  0.00  0.00    +0.100 C 
BRANCH  11  12
ATOM     12  CA  LIG    1       -0.699   1.479   1.216  0.00  0.00    +0.080 C 
BRANCH  12  13
ATOM     13  N   LIG    1       -0.012   1.005   0.008  0.00  0.00    -0.620 N 
ATOM     14  H1  LIG    1       -0.500   1.339  -0.810  0.00  0.00    +0.420 HD
ATOM     15  H2  LIG    1        0.935   1.354   0.000  0.00  0.00    +0.420 HD
ATOM     16  H3  LIG    1        0.002  -0.004   0.002  0.00  0.00    +0.440 HD
ENDBRANCH  12  13
BRANCH  12  17
ATOM     17  C   LIG    1       -2.113   0.957   1.227  0.00  0.00    +0.490 C 
ATOM     18  OXT LIG    1       -2.996   1.601   1.767  0.00  0.00    -0.650 OA
ATOM     19  O   LIG    1       -2.373  -0.109   0.696  0.00  0.00    -0.670 OA
ENDBRANCH  12  17
ENDBRANCH  11  12
ENDBRANCH   1  11
TORSDOF 7
ENDMDL
MODEL       45
REMARK  Name = ZINC000001856587
REMARK                            x       y       z     vdW  Elec       q    Type
REMARK                         _______ _______ _______ _____ _____    ______ ____
ROOT
ATOM      1  C   LIG    1       -2.911   1.555   0.056  0.00  0.00    +0.020 C 
ENDROOT
BRANCH   1   2
ATOM      2  C   LIG    1       -4.324   1.033   0.067  0.00  0.00    +0.490 C 
ATOM      3  N   LIG    1       -5.197   1.433  -0.879  0.00  0.00    -0.690 N 
ATOM      4  H   LIG    1       -4.916   2.057  -1.567  0.00  0.00    +0.390 HD
ATOM      5  O   LIG    1       -4.677   0.254   0.926  0.00  0.00    -0.530 OA
BRANCH   3   6
ATOM      6  C   LIG    1       -6.572   0.926  -0.869  0.00  0.00    -0.370 C 
BRANCH   6   7
ATOM      7  P   LIG    1       -7.649   2.108   0.007  0.00  0.00    +2.190 P 
ATOM      8  O   LIG    1       -9.091   1.508   0.131  0.00  0.00    -1.180 OA
ATOM      9  O   LIG    1       -7.709   3.453  -0.794  0.00  0.00    -1.180 OA
ATOM     10  O   LIG    1       -7.072   2.378   1.439  0.00  0.00    -1.160 OA
ENDBRANCH   6   7
ENDBRANCH   3   6
ENDBRANCH   1   2
BRANCH   1  11
ATOM     11  C   LIG    1       -2.135   0.949   1.227  0.00  0.00    +0.090 C 
BRANCH  11  12
ATOM     12  CA  LIG    1       -0.699   1.479   1.216  0.00  0.00    +0.090 C 
BRANCH  12  13
ATOM     13  N   LIG    1       -0.012   1.005   0.008  0.00  0.00    -0.610 N 
ATOM     14  H1  LIG    1       -0.500   1.339  -0.810  0.00  0.00    +0.410 HD
ATOM     15  H2  LIG    1        0.935   1.354   0.000  0.00  0.00    +0.430 HD
ATOM     16  H3  LIG    1        0.002  -0.004   0.002  0.00  0.00    +0.430 HD
ENDBRANCH  12  13
BRANCH  12  17
ATOM     17  C   LIG    1        0.030   0.979   2.437  0.00  0.00    +0.500 C 
ATOM     18  OXT LIG    1        0.915   0.149   2.322  0.00  0.00    -0.690 OA
ATOM     19  O   LIG    1       -0.266   1.406   3.540  0.00  0.00    -0.630 OA
ENDBRANCH  12  17
ENDBRANCH  11  12
ENDBRANCH   1  11
TORSDOF 7
ENDMDL
MODEL       46
REMARK  Name = ZINC000002242980
REMARK                            x       y       z     vdW  Elec       q    Type
REMARK                         _______ _______ _______ _____ _____    ______ ____
ROOT
ATOM      1  C   ALA A  1        0.707  -0.490  -1.238  0.00  0.00    +0.520 C 
ATOM      2  N   GLU A  2        0.231  -0.164  -2.456  0.00  0.00    -0.680 N 
ATOM      3  H   GLU A  2       -0.566   0.383  -2.534  0.00  0.00    +0.390 HD
ATOM      4  O   ALA A  1        1.704  -1.174  -1.140  0.00  0.00    -0.550 OA
ENDROOT
BRANCH   1   6
ATOM      5  CB  ALA A  1       -0.019   1.526   0.010  0.00  0.00    +0.000 C 
ATOM      6  CA  ALA A  1        0.002  -0.004   0.002  0.00  0.00    +0.170 C 
BRANCH   6   7
ATOM      7  N   ALA A  1        0.713  -0.491   1.192  0.00  0.00    -0.830 NA
ATOM      8  H1  ALA A  1        0.259  -0.178   2.037  0.00  0.00    +0.330 HD
ATOM      9  H2  ALA A  1        1.681  -0.208   1.176  0.00  0.00    +0.350 HD
ENDBRANCH   6   7
ENDBRANCH   1   6
BRANCH   2  10
ATOM     10  CA  GLU A  2        0.917  -0.637  -3.661  0.00  0.00    +0.150 C 
BRANCH  10  11
ATOM     11  C   GLU A  2        2.037   0.310  -4.005  0.00  0.00    +0.500 C 
ATOM     12  OXT GLU A  2        2.737   0.098  -4.981  0.00  0.00    -0.700 OA
ATOM     13  O   GLU A  2        2.244   1.289  -3.308  0.00  0.00    -0.700 OA
ENDBRANCH  10  11
BRANCH  10  14
ATOM     14  CB  GLU A  2       -0.077  -0.695  -4.823  0.00  0.00    +0.050 C 
BRANCH  14  15
ATOM     15  CG  GLU A  2       -1.147  -1.748  -4.527  0.00  0.00    -0.080 C 
BRANCH  15  16
ATOM     16  CD  GLU A  2       -2.125  -1.806  -5.672  0.00  0.00    +0.490 C 
ATOM     17  OE2 GLU A  2       -3.062  -2.586  -5.634  0.00  0.00    -0.720 OA
ATOM     18  OE1 GLU A  2       -1.980  -1.073  -6.635  0.00  0.00    -0.700 OA
ENDBRANCH  15  16
ENDBRANCH  14  15
ENDBRANCH  10  14
ENDBRANCH   2  10
TORSDOF 7
ENDMDL
MODEL       47
REMARK  Name = ZINC000052096023
REMARK                            x       y       z     vdW  Elec       q    Type
REMARK                         _______ _______ _______ _____ _____    ______ ____
ROOT
ATOM      1  S   LIG    1        0.058  -3.547   1.629  0.00  0.00    +2.550 S 
ATOM      2  O   LIG    1       -0.751  -3.276   2.765  0.00  0.00    -1.070 OA
ATOM      3  O   LIG    1        1.418  -3.946   1.721  0.00  0.00    -1.070 OA
ENDROOT
BRANCH   1   8
ATOM      4  C   LIG    1       -0.018   1.461   0.010  0.00  0.00    +0.310 C 
ATOM      5  N   LIG    1        0.002  -0.004   0.002  0.00  0.00    -0.470 N 
ATOM      6  C   LIG    1        0.009  -0.799  -1.089  0.00  0.00    +0.350 A 
ATOM      7  N   LIG    1        0.027  -2.045  -0.700  0.00  0.00    -0.390 NA
ATOM      8  C   LIG    1        0.033  -2.088   0.641  0.00  0.00    -0.440 A 
ATOM      9  C   LIG    1        0.024  -0.822   1.099  0.00  0.00    +0.180 A 
ENDBRANCH   1   8
BRANCH   1  10
ATOM     10  N   LIG    1       -0.721  -4.732   0.773  0.00  0.00    -1.080 NA
BRANCH  10  11
ATOM     11  C   LIG    1       -0.861  -6.074   1.343  0.00  0.00    +0.070 C 
BRANCH  11  12
ATOM     12  C   LIG    1       -1.602  -6.957   0.372  0.00  0.00    +0.510 C 
ATOM     13  O   LIG    1       -1.826  -8.122   0.655  0.00  0.00    -0.750 OA
ATOM     14  O   LIG    1       -1.977  -6.507  -0.697  0.00  0.00    -0.680 OA
ENDBRANCH  11  12
ENDBRANCH  10  11
ENDBRANCH   1  10
TORSDOF 4
ENDMDL
MODEL       48
REMARK  Name = ZINC000004429444
REMARK                            x       y       z     vdW  Elec       q    Type
REMARK                         _______ _______ _______ _____ _____    ______ ____
ROOT
ATOM      1  O   LIG    1        0.002  -0.004   0.002  0.00  0.00    -0.640 OA
ATOM      2  C   LIG    1       -0.014   1.212   0.009  0.00  0.00    +0.640 A 
ATOM      3  N   LIG    1       -1.195   1.858   0.029  0.00  0.00    -0.700 NA
ATOM      4  C   LIG    1       -1.234   3.206   0.037  0.00  0.00    +0.520 A 
ATOM      5  C   LIG    1       -0.017   3.939   0.024  0.00  0.00    +0.000 A 
ATOM      6  C   LIG    1        1.156   3.264   0.004  0.00  0.00    +0.190 A 
ATOM      7  O   LIG    1       -2.302   3.789   0.056  0.00  0.00    -0.610 OA
ATOM      8  N   LIG    1        1.147   1.890   0.001  0.00  0.00    -0.660 N 
ATOM      9  H   LIG    1        1.987   1.404  -0.013  0.00  0.00    +0.390 HD
ENDROOT
BRANCH   5  10
ATOM     10  N   LIG    1       -0.030   5.345   0.033  0.00  0.00    -1.060 N 
ATOM     11  H   LIG    1       -0.875   5.822   0.048  0.00  0.00    +0.410 HD
BRANCH  10  12
ATOM     12  S   LIG    1        1.395   6.188   0.017  0.00  0.00    +2.780 S 
ATOM     13  O   LIG    1        2.038   5.901  -1.256  0.00  0.00    -1.090 OA
ATOM     14  O   LIG    1        2.179   5.706   1.144  0.00  0.00    -1.090 OA
ATOM     15  O   LIG    1        1.053   7.595   0.152  0.00  0.00    -1.090 OA
ENDBRANCH  10  12
ENDBRANCH   5  10
TORSDOF 2
ENDMDL
MODEL       49
REMARK  Name = ZINC000087440238
REMARK                            x       y       z     vdW  Elec       q    Type
REMARK                         _______ _______ _______ _____ _____    ______ ____
ROOT
ATOM      1  C   LIG    1       -1.330   1.951   0.019  0.00  0.00    -0.100 C 
ATOM      2  C   LIG    1       -1.109   3.484   0.107  0.00  0.00    +0.040 C 
ATOM      3  C   LIG    1       -2.407   3.983   0.775  0.00  0.00    +0.260 C 
ATOM      4  N   LIG    1       -2.993   2.843   1.495  0.00  0.00    -0.610 N 
ATOM      5  C   LIG    1       -4.146   2.863   2.193  0.00  0.00    +0.630 C 
ATOM      6  O   LIG    1       -4.536   1.857   2.751  0.00  0.00    -0.550 OA
ATOM      7  C   LIG    1       -2.111   1.673   1.327  0.00  0.00    +0.270 C 
ENDROOT
BRANCH   5   8
ATOM      8  C   LIG    1       -4.937   4.112   2.279  0.00  0.00    +0.020 A 
ATOM      9  N   LIG    1       -4.640   5.285   1.718  0.00  0.00    -0.350 NA
ATOM     10  N   LIG    1       -5.578   6.112   2.031  0.00  0.00    -0.190 NA
ATOM     11  N   LIG    1       -6.449   5.510   2.762  0.00  0.00    -0.200 NA
ATOM     12  N   LIG    1       -6.089   4.283   2.928  0.00  0.00    -0.330 NA
ENDBRANCH   5   8
BRANCH   1  14
ATOM     13  O   LIG    1        0.002  -0.004   0.002  0.00  0.00    -0.700 OA
ATOM     14  C   LIG    1       -0.015   1.215   0.009  0.00  0.00    +0.510 C 
ATOM     15  O   LIG    1        1.033   1.839   0.002  0.00  0.00    -0.700 OA
ENDBRANCH   1  14
TORSDOF 2
ENDMDL
MODEL       50
REMARK  Name = ZINC000031623577
REMARK                            x       y       z     vdW  Elec       q    Type
REMARK                         _______ _______ _______ _____ _____    ______ ____
ROOT
ATOM      1  C   LIG    1        0.002  -0.004   0.002  0.00  0.00    +0.590 A 
ATOM      2  N   LIG    1       -1.147  -0.649   0.004  0.00  0.00    -0.680 NA
ATOM      3  C   LIG    1       -1.209  -1.978  -0.003  0.00  0.00    +0.410 A 
ATOM      4  C   LIG    1       -0.008  -2.728  -0.014  0.00  0.00    -0.280 A 
ATOM      5  C   LIG    1        1.267  -1.988  -0.016  0.00  0.00    +0.560 A 
ATOM      6  O   LIG    1        2.335  -2.572  -0.025  0.00  0.00    -0.610 OA
ATOM      7  N   LIG    1       -0.025  -4.051  -0.021  0.00  0.00    -0.330 NA
ATOM      8  CA  LIG    1       -1.172  -4.712  -0.019  0.00  0.00    -0.160 A 
ATOM      9  C   LIG    1       -2.441  -3.973  -0.009  0.00  0.00    +0.470 A 
ATOM     10  O   LIG    1       -3.501  -4.570  -0.007  0.00  0.00    -0.600 OA
ATOM     11  N   LIG    1       -2.416  -2.622  -0.000  0.00  0.00    -0.670 NA
ATOM     12  N   LIG    1        1.206  -0.637  -0.013  0.00  0.00    -0.760 NA
ENDROOT
BRANCH   1  13
ATOM     13  N   LIG    1       -0.016   1.361   0.009  0.00  0.00    -0.840 N 
ATOM     14  H   LIG    1       -0.863   1.834   0.016  0.00  0.00    +0.390 HD
ATOM     15  H   LIG    1        0.817   1.857   0.004  0.00  0.00    +0.390 HD
ENDBRANCH   1  13
BRANCH   8  16
ATOM     16  C   LIG    1       -1.175  -6.181  -0.026  0.00  0.00    +0.560 C 
ATOM     17  OXT LIG    1       -2.237  -6.790  -0.024  0.00  0.00    -0.700 OA
ATOM     18  O   LIG    1       -0.117  -6.795  -0.034  0.00  0.00    -0.720 OA
ENDBRANCH   8  16
TORSDOF 2
ENDMDL
MODEL       51
REMARK  Name = ZINC000087440240
REMARK                            x       y       z     vdW  Elec       q    Type
REMARK                         _______ _______ _______ _____ _____    ______ ____
ROOT
ATOM      1  C   LIG    1       -1.330   1.951   0.019  0.00  0.00    -0.100 C 
ATOM      2  C   LIG    1       -1.502   2.800  -1.268  0.00  0.00    +0.030 C 
ATOM      3  C   LIG    1       -3.035   2.890  -1.420  0.00  0.00    +0.260 C 
ATOM      4  N   LIG    1       -3.615   1.761  -0.677  0.00  0.00    -0.610 N 
ATOM      5  C   LIG    1       -4.930   1.498  -0.549  0.00  0.00    +0.630 C 
ATOM      6  O   LIG    1       -5.297   0.532   0.090  0.00  0.00    -0.550 OA
ATOM      7  C   LIG    1       -2.518   0.964  -0.096  0.00  0.00    +0.270 C 
ENDROOT
BRANCH   5   8
ATOM      8  C   LIG    1       -5.928   2.386  -1.188  0.00  0.00    +0.020 A 
ATOM      9  N   LIG    1       -5.678   3.472  -1.920  0.00  0.00    -0.350 NA
ATOM     10  N   LIG    1       -6.812   3.959  -2.291  0.00  0.00    -0.190 NA
ATOM     11  N   LIG    1       -7.762   3.228  -1.823  0.00  0.00    -0.200 NA
ATOM     12  N   LIG    1       -7.255   2.253  -1.149  0.00  0.00    -0.330 NA
ENDBRANCH   5   8
BRANCH   1  14
ATOM     13  O   LIG    1        0.002  -0.004   0.002  0.00  0.00    -0.700 OA
ATOM     14  C   LIG    1       -0.015   1.215   0.009  0.00  0.00    +0.510 C 
ATOM     15  O   LIG    1        1.033   1.839   0.002  0.00  0.00    -0.700 OA
ENDBRANCH   1  14
TORSDOF 2
ENDMDL
MODEL       52
REMARK  Name = ZINC000008672837
REMARK                            x       y       z     vdW  Elec       q    Type
REMARK                         _______ _______ _______ _____ _____    ______ ____
ROOT
ATOM      1  CA  LIG    1       -1.299   1.938   0.019  0.00  0.00    -0.160 A 
ATOM      2  C   LIG    1       -2.496   1.204   0.026  0.00  0.00    +0.350 A 
ATOM      3  N   LIG    1       -3.691   1.835   0.035  0.00  0.00    -0.610 NA
ATOM      4  C   LIG    1       -3.711   3.202   0.037  0.00  0.00    +0.410 A 
ATOM      5  N   LIG    1       -4.838   3.895   0.047  0.00  0.00    -0.710 NA
ATOM      6  C   LIG    1       -4.836   5.225   0.049  0.00  0.00    +0.640 A 
ATOM      7  N   LIG    1       -3.723   5.973   0.043  0.00  0.00    -0.780 NA
ATOM      8  C   LIG    1       -2.495   5.403   0.033  0.00  0.00    +0.550 A 
ATOM      9  O   LIG    1       -1.483   6.078   0.027  0.00  0.00    -0.620 OA
ATOM     10  O   LIG    1       -5.911   5.800   0.058  0.00  0.00    -0.670 OA
ATOM     11  C   LIG    1       -2.437   3.929   0.029  0.00  0.00    -0.190 A 
ATOM     12  N   LIG    1       -1.300   3.268   0.026  0.00  0.00    -0.300 NA
ENDROOT
BRANCH   1  14
ATOM     13  O   LIG    1        0.002  -0.004   0.002  0.00  0.00    -0.710 OA
ATOM     14  C   LIG    1       -0.015   1.219   0.009  0.00  0.00    +0.560 C 
ATOM     15  OXT LIG    1        1.037   1.845   0.002  0.00  0.00    -0.700 OA
ENDBRANCH   1  14
BRANCH   2  16
ATOM     16  O   LIG    1       -2.453  -0.140   0.025  0.00  0.00    -0.430 OA
ATOM     17  H   LIG    1       -3.300  -0.606   0.030  0.00  0.00    +0.360 HD
ENDBRANCH   2  16
TORSDOF 2
ENDMDL
MODEL       53
REMARK  Name = ZINC000013726173
REMARK                            x       y       z     vdW  Elec       q    Type
REMARK                         _______ _______ _______ _____ _____    ______ ____
ROOT
ATOM      1  O   LIG    1        0.002  -0.004   0.002  0.00  0.00    -0.620 OA
ATOM      2  C   LIG    1       -0.014   1.214   0.009  0.00  0.00    +0.520 A 
ATOM      3  C   LIG    1       -1.246   1.911   0.030  0.00  0.00    -0.200 A 
ATOM      4  C   LIG    1       -1.236   3.261   0.038  0.00  0.00    +0.210 A 
ATOM      5  N   LIG    1       -0.043   3.930   0.025  0.00  0.00    -0.660 N 
ATOM      6  H   LIG    1       -0.036   4.901   0.030  0.00  0.00    +0.390 HD
ATOM      7  C   LIG    1        1.121   3.256   0.004  0.00  0.00    +0.650 A 
ATOM      8  O   LIG    1        2.170   3.870  -0.008  0.00  0.00    -0.630 OA
ATOM      9  N   LIG    1        1.140   1.910   0.001  0.00  0.00    -0.710 NA
ENDROOT
BRANCH   4  10
ATOM     10  C   LIG    1       -2.534   4.028   0.061  0.00  0.00    -0.530 C 
BRANCH  10  11
ATOM     11  P   LIG    1       -2.956   4.456   1.782  0.00  0.00    +2.310 P 
ATOM     12  O   LIG    1       -1.896   5.429   2.345  0.00  0.00    -1.060 OA
ATOM     13  O   LIG    1       -2.983   3.172   2.640  0.00  0.00    -1.050 OA
BRANCH  11  14
ATOM     14  C   LIG    1       -4.595   5.252   1.825  0.00  0.00    -0.450 C 
BRANCH  14  15
ATOM     15  O   LIG    1       -4.926   5.588   3.175  0.00  0.00    -0.520 OA
ATOM     16  H   LIG    1       -5.788   6.016   3.273  0.00  0.00    +0.350 HD
ENDBRANCH  14  15
ENDBRANCH  11  14
ENDBRANCH  10  11
ENDBRANCH   4  10
TORSDOF 4
ENDMDL
MODEL       54
REMARK  Name = ZINC000013910898
REMARK                            x       y       z     vdW  Elec       q    Type
REMARK                         _______ _______ _______ _____ _____    ______ ____
ROOT
ATOM      1  C   LIG    1        0.002  -0.004   0.002  0.00  0.00    +0.070 C 
ATOM      2  C   LIG    1        0.732  -0.523   1.268  0.00  0.00    -0.280 C 
ATOM      3  S   LIG    1       -0.573  -0.309   2.545  0.00  0.00    +2.400 S 
ATOM      4  C   LIG    1       -1.968  -0.738   1.439  0.00  0.00    -0.460 C 
ATOM      5  C   LIG    1       -2.575   0.372   0.579  0.00  0.00    +0.010 C 
ATOM      6  O   LIG    1       -0.657   1.061   2.916  0.00  0.00    -0.930 OA
ATOM      7  O   LIG    1       -0.431  -1.309   3.545  0.00  0.00    -0.970 OA
ATOM      8  C   LIG    1       -1.432  -0.539   0.013  0.00  0.00    +0.050 C 
ENDROOT
BRANCH   1   9
ATOM      9  N   LIG    1       -0.018   1.465   0.010  0.00  0.00    -0.820 NA
ATOM     10  H   LIG    1       -0.556   1.823  -0.764  0.00  0.00    +0.350 HD
ATOM     11  H   LIG    1        0.919   1.839   0.003  0.00  0.00    +0.340 HD
ENDBRANCH   1   9
BRANCH   5  12
ATOM     12  C   LIG    1       -3.962   0.149   0.034  0.00  0.00    +0.520 C 
ATOM     13  O   LIG    1       -4.152  -0.700  -0.821  0.00  0.00    -0.690 OA
ATOM     14  O   LIG    1       -4.894   0.818   0.447  0.00  0.00    -0.700 OA
ENDBRANCH   5  12
BRANCH   1  15
ATOM     15  C   LIG    1        0.717  -0.495  -1.230  0.00  0.00    +0.500 C 
ATOM     16  O   LIG    1        0.854  -1.692  -1.420  0.00  0.00    -0.690 OA
ATOM     17  O   LIG    1        1.159   0.305  -2.038  0.00  0.00    -0.700 OA
ENDBRANCH   1  15
TORSDOF 3
ENDMDL
MODEL       55
REMARK  Name = ZINC000001787697
REMARK                            x       y       z     vdW  Elec       q    Type
REMARK                         _______ _______ _______ _____ _____    ______ ____
ROOT
ATOM      1  N   LIG    1       -2.452   1.075   0.079  0.00  0.00    -0.450 NA
ENDROOT
BRANCH   1   2
ATOM      2  C   LIG    1       -1.283   1.956  -0.045  0.00  0.00    +0.150 C 
BRANCH   2   4
ATOM      3  O   LIG    1       -2.431   2.736  -1.960  0.00  0.00    -0.710 OA
ATOM      4  C   LIG    1       -1.469   2.875  -1.225  0.00  0.00    +0.470 C 
ATOM      5  O   LIG    1       -0.660   3.761  -1.441  0.00  0.00    -0.750 OA
ENDBRANCH   2   4
ENDBRANCH   1   2
BRANCH   1   6
ATOM      6  C   LIG    1       -2.576   0.198  -1.093  0.00  0.00    -0.490 C 
BRANCH   6   7
ATOM      7  P   LIG    1       -1.546  -1.286  -0.854  0.00  0.00    +2.260 P 
ATOM      8  O   LIG    1       -1.639  -2.197  -2.125  0.00  0.00    -1.220 OA
ATOM      9  O   LIG    1       -2.057  -2.080   0.396  0.00  0.00    -1.200 OA
ATOM     10  O   LIG    1       -0.056  -0.857  -0.627  0.00  0.00    -1.190 OA
ENDBRANCH   6   7
ENDBRANCH   1   6
BRANCH   1  11
ATOM     11  C   LIG    1       -3.680   1.855   0.285  0.00  0.00    +0.060 C 
BRANCH  11  12
ATOM     12  C   LIG    1       -3.614   2.552   1.620  0.00  0.00    +0.500 C 
ATOM     13  O   LIG    1       -4.539   3.255   1.987  0.00  0.00    -0.760 OA
ATOM     14  O   LIG    1       -2.634   2.412   2.333  0.00  0.00    -0.680 OA
ENDBRANCH  11  12
ENDBRANCH   1  11
TORSDOF 6
ENDMDL
MODEL       56
REMARK  Name = ZINC000075283661
REMARK                            x       y       z     vdW  Elec       q    Type
REMARK                         _______ _______ _______ _____ _____    ______ ____
ROOT
ATOM      1  CA  THR A  1       -1.433  -0.534   0.013  0.00  0.00    +0.090 C 
ENDROOT
BRANCH   1   2
ATOM      2  C   THR A  1       -1.413  -2.041   0.005  0.00  0.00    +0.510 C 
ATOM      3  OXT THR A  1       -1.415  -2.644  -1.055  0.00  0.00    -0.700 OA
ATOM      4  O   THR A  1       -1.395  -2.656   1.057  0.00  0.00    -0.720 OA
ENDBRANCH   1   2
BRANCH   1   6
ATOM      5  CG2 THR A  1       -0.019   1.526   0.010  0.00  0.00    +0.010 C 
ATOM      6  CB  THR A  1        0.002  -0.004   0.002  0.00  0.00    +0.160 C 
BRANCH   6   7
ATOM      7  OG1 THR A  1        0.693  -0.477   1.160  0.00  0.00    -0.550 OA
ATOM      8  HG1 THR A  1        1.611  -0.180   1.219  0.00  0.00    +0.340 HD
ENDBRANCH   6   7
ENDBRANCH   1   6
BRANCH   1   9
ATOM      9  N   THR A  1       -2.144  -0.047  -1.177  0.00  0.00    -0.640 NA
ATOM     10  H   THR A  1       -1.797   0.857  -1.461  0.00  0.00    +0.310 HD
BRANCH   9  11
ATOM     11  C   UNK A  0       -3.594  -0.005  -0.944  0.00  0.00    -0.460 C 
BRANCH  11  12
ATOM     12  P   UNK A  0       -4.076   1.671  -0.413  0.00  0.00    +2.200 P 
ATOM     13  O   UNK A  0       -5.598   1.683  -0.042  0.00  0.00    -1.190 OA
ATOM     14  O   UNK A  0       -3.814   2.684  -1.579  0.00  0.00    -1.180 OA
ATOM     15  O   UNK A  0       -3.230   2.085   0.839  0.00  0.00    -1.170 OA
ENDBRANCH  11  12
ENDBRANCH   9  11
ENDBRANCH   1   9
TORSDOF 6
ENDMDL
MODEL       57
REMARK  Name = ZINC000075283655
REMARK                            x       y       z     vdW  Elec       q    Type
REMARK                         _______ _______ _______ _____ _____    ______ ____
ROOT
ATOM      1  CA  THR A  1        1.159  -0.934   1.117  0.00  0.00    +0.110 C 
ENDROOT
BRANCH   1   2
ATOM      2  C   THR A  1        1.837  -2.279   1.072  0.00  0.00    +0.480 C 
ATOM      3  OXT THR A  1        1.169  -3.299   1.065  0.00  0.00    -0.710 OA
ATOM      4  O   THR A  1        3.054  -2.347   1.043  0.00  0.00    -0.720 OA
ENDBRANCH   1   2
BRANCH   1   6
ATOM      5  CG2 THR A  1       -0.073   0.775  -0.227  0.00  0.00    +0.010 C 
ATOM      6  CB  THR A  1        0.616  -0.591  -0.272  0.00  0.00    +0.160 C 
BRANCH   6   7
ATOM      7  OG1 THR A  1       -0.327  -1.587  -0.675  0.00  0.00    -0.550 OA
ATOM      8  HG1 THR A  1       -0.712  -1.433  -1.548  0.00  0.00    +0.340 HD
ENDBRANCH   6   7
ENDBRANCH   1   6
BRANCH   1   9
ATOM      9  N   THR A  1        2.127   0.089   1.531  0.00  0.00    -0.620 NA
ATOM     10  H   THR A  1        3.017  -0.050   1.076  0.00  0.00    +0.300 HD
BRANCH   9  11
ATOM     11  C   UNK A  0        2.280   0.109   2.992  0.00  0.00    -0.480 C 
BRANCH  11  12
ATOM     12  P   UNK A  0        1.189   1.387   3.699  0.00  0.00    +2.240 P 
ATOM     13  O   UNK A  0        1.403   1.457   5.250  0.00  0.00    -1.210 OA
ATOM     14  O   UNK A  0       -0.305   1.025   3.395  0.00  0.00    -1.190 OA
ATOM     15  O   UNK A  0        1.530   2.776   3.061  0.00  0.00    -1.190 OA
ENDBRANCH  11  12
ENDBRANCH   9  11
ENDBRANCH   1   9
TORSDOF 6
ENDMDL
MODEL       58
REMARK  Name = ZINC000075283656
REMARK                            x       y       z     vdW  Elec       q    Type
REMARK                         _______ _______ _______ _____ _____    ______ ____
ROOT
ATOM      1  CA  THR A  1       -1.489  -0.938   0.433  0.00  0.00    +0.120 C 
ENDROOT
BRANCH   1   2
ATOM      2  C   THR A  1       -1.742  -2.266   1.099  0.00  0.00    +0.490 C 
ATOM      3  OXT THR A  1       -1.349  -3.295   0.577  0.00  0.00    -0.730 OA
ATOM      4  O   THR A  1       -2.339  -2.311   2.161  0.00  0.00    -0.710 OA
ENDBRANCH   1   2
BRANCH   1   6
ATOM      5  CG2 THR A  1        0.238   0.803  -0.043  0.00  0.00    +0.020 C 
ATOM      6  CB  THR A  1        0.001  -0.599   0.522  0.00  0.00    +0.170 C 
BRANCH   6   7
ATOM      7  OG1 THR A  1        0.417  -0.639   1.888  0.00  0.00    -0.560 OA
ATOM      8  HG1 THR A  1        1.353  -0.433   2.020  0.00  0.00    +0.340 HD
ENDBRANCH   6   7
ENDBRANCH   1   6
BRANCH   1   9
ATOM      9  N   THR A  1       -2.270   0.106   1.109  0.00  0.00    -0.610 NA
ATOM     10  H   THR A  1       -2.251  -0.019   2.110  0.00  0.00    +0.310 HD
BRANCH   9  11
ATOM     11  C   UNK A  0       -3.651   0.136   0.609  0.00  0.00    -0.490 C 
BRANCH  11  12
ATOM     12  P   UNK A  0       -3.796   1.396  -0.701  0.00  0.00    +2.250 P 
ATOM     13  O   UNK A  0       -5.286   1.487  -1.176  0.00  0.00    -1.210 OA
ATOM     14  O   UNK A  0       -2.885   0.997  -1.912  0.00  0.00    -1.190 OA
ATOM     15  O   UNK A  0       -3.340   2.786  -0.141  0.00  0.00    -1.190 OA
ENDBRANCH  11  12
ENDBRANCH   9  11
ENDBRANCH   1   9
TORSDOF 6
ENDMDL
MODEL       59
REMARK  Name = ZINC000075283659
REMARK                            x       y       z     vdW  Elec       q    Type
REMARK                         _______ _______ _______ _____ _____    ______ ____
ROOT
ATOM      1  CA  THR A  1        0.742  -0.511   1.242  0.00  0.00    +0.090 C 
ENDROOT
BRANCH   1   2
ATOM      2  C   THR A  1        0.762  -2.018   1.233  0.00  0.00    +0.510 C 
ATOM      3  OXT THR A  1       -0.139  -2.643   1.766  0.00  0.00    -0.680 OA
ATOM      4  O   THR A  1        1.680  -2.612   0.693  0.00  0.00    -0.740 OA
ENDBRANCH   1   2
BRANCH   1   6
ATOM      5  CG2 THR A  1       -0.019   1.526   0.010  0.00  0.00    +0.010 C 
ATOM      6  CB  THR A  1        0.002  -0.004   0.002  0.00  0.00    +0.160 C 
BRANCH   6   7
ATOM      7  OG1 THR A  1       -1.339  -0.499   0.012  0.00  0.00    -0.540 OA
ATOM      8  HG1 THR A  1       -1.868  -0.216  -0.746  0.00  0.00    +0.340 HD
ENDBRANCH   6   7
ENDBRANCH   1   6
BRANCH   1   9
ATOM      9  N   THR A  1        0.054  -0.037   2.450  0.00  0.00    -0.630 NA
ATOM     10  H   THR A  1       -0.387   0.856   2.288  0.00  0.00    +0.320 HD
BRANCH   9  11
ATOM     11  C   UNK A  0        0.980   0.032   3.589  0.00  0.00    -0.470 C 
BRANCH  11  12
ATOM     12  P   UNK A  0        1.639   1.725   3.735  0.00  0.00    +2.200 P 
ATOM     13  O   UNK A  0        2.720   1.769   4.868  0.00  0.00    -1.190 OA
ATOM     14  O   UNK A  0        0.473   2.711   4.088  0.00  0.00    -1.190 OA
ATOM     15  O   UNK A  0        2.289   2.151   2.375  0.00  0.00    -1.180 OA
ENDBRANCH  11  12
ENDBRANCH   9  11
ENDBRANCH   1   9
TORSDOF 6
ENDMDL
MODEL       60
REMARK  Name = ZINC000012296982
REMARK                            x       y       z     vdW  Elec       q    Type
REMARK                         _______ _______ _______ _____ _____    ______ ____
ROOT
ATOM      1  O   LIG    1        0.002  -0.004   0.002  0.00  0.00    -0.550 OA
ATOM      2  C   LIG    1       -0.014   1.214   0.009  0.00  0.00    +0.560 A 
ATOM      3  C   LIG    1       -1.246   1.911   0.030  0.00  0.00    -0.180 A 
ATOM      4  C   LIG    1       -1.236   3.261   0.038  0.00  0.00    +0.280 A 
ATOM      5  N   LIG    1       -0.043   3.930   0.025  0.00  0.00    -0.620 N 
ATOM      6  H   LIG    1       -0.036   4.901   0.030  0.00  0.00    +0.440 HD
ATOM      7  C   LIG    1        1.121   3.256   0.004  0.00  0.00    +0.700 A 
ATOM      8  O   LIG    1        2.170   3.870  -0.008  0.00  0.00    -0.570 OA
ATOM      9  N   LIG    1        1.140   1.910   0.001  0.00  0.00    -0.660 N 
ATOM     10  H   LIG    1        1.988   1.439  -0.013  0.00  0.00    +0.420 HD
ENDROOT
BRANCH   4  11
ATOM     11  C   LIG    1       -2.534   4.028   0.061  0.00  0.00    -0.510 C 
BRANCH  11  12
ATOM     12  P   LIG    1       -2.956   4.456   1.782  0.00  0.00    +2.170 P 
ATOM     13  O   LIG    1       -4.365   5.140   1.819  0.00  0.00    -1.160 OA
ATOM     14  O   LIG    1       -1.881   5.443   2.353  0.00  0.00    -1.160 OA
ATOM     15  O   LIG    1       -2.984   3.154   2.652  0.00  0.00    -1.150 OA
ENDBRANCH  11  12
ENDBRANCH   4  11
TORSDOF 2
ENDMDL
MODEL       61
REMARK  Name = ZINC000000517234
REMARK                            x       y       z     vdW  Elec       q    Type
REMARK                         _______ _______ _______ _____ _____    ______ ____
ROOT
ATOM      1  C   LIG    1       -3.809   1.679  -0.140  0.00  0.00    +0.510 C 
ATOM      2  N   LIG    1       -4.952   0.987   0.031  0.00  0.00    -0.670 N 
ATOM      3  H   LIG    1       -4.931   0.018   0.074  0.00  0.00    +0.390 HD
ATOM      4  O   LIG    1       -3.845   2.883  -0.285  0.00  0.00    -0.520 OA
ENDROOT
BRANCH   2   5
ATOM      5  C   LIG    1       -6.176   1.669   0.147  0.00  0.00    -0.040 A 
ATOM      6  C   LIG    1       -7.186   1.421  -0.721  0.00  0.00    +0.240 A 
ATOM      7  N   LIG    1       -8.373   2.097  -0.591  0.00  0.00    -0.670 N 
ATOM      8  H   LIG    1       -9.096   1.920  -1.212  0.00  0.00    +0.390 HD
ATOM      9  C   LIG    1       -8.542   3.002   0.389  0.00  0.00    +0.640 A 
ATOM     10  N   LIG    1       -7.556   3.269   1.265  0.00  0.00    -0.700 NA
ATOM     11  O   LIG    1       -9.602   3.590   0.484  0.00  0.00    -0.630 OA
ATOM     12  C   LIG    1       -6.375   2.624   1.179  0.00  0.00    +0.520 A 
ATOM     13  O   LIG    1       -5.484   2.865   1.973  0.00  0.00    -0.570 OA
ENDBRANCH   2   5
BRANCH   1  14
ATOM     14  C   LIG    1       -2.485   0.958  -0.151  0.00  0.00    +0.060 C 
BRANCH  14  15
ATOM     15  C   LIG    1       -1.356   1.968  -0.361  0.00  0.00    -0.040 C 
BRANCH  15  17
ATOM     16  O   LIG    1        0.004   0.037  -0.226  0.00  0.00    -0.710 OA
ATOM     17  C   LIG    1       -0.033   1.247  -0.372  0.00  0.00    +0.490 C 
ATOM     18  O   LIG    1        1.002   1.873  -0.532  0.00  0.00    -0.710 OA
ENDBRANCH  15  17
ENDBRANCH  14  15
ENDBRANCH   1  14
TORSDOF 4
ENDMDL
MODEL       62
REMARK  Name = ZINC000019797617
REMARK                            x       y       z     vdW  Elec       q    Type
REMARK                         _______ _______ _______ _____ _____    ______ ____
ROOT
ATOM      1  O   LIG    1        0.002  -0.004   0.002  0.00  0.00    -0.670 OA
ATOM      2  C   LIG    1       -0.014   1.212   0.009  0.00  0.00    +0.650 A 
ATOM      3  N   LIG    1       -1.194   1.858   0.029  0.00  0.00    -0.750 NA
ATOM      4  C   LIG    1       -1.235   3.206   0.037  0.00  0.00    +0.540 A 
ATOM      5  C   LIG    1       -0.034   3.936   0.024  0.00  0.00    -0.520 A 
ATOM      6  C   LIG    1        1.151   3.262   0.004  0.00  0.00    +0.470 A 
ATOM      7  O   LIG    1        2.319   3.940  -0.009  0.00  0.00    -0.750 OA
ATOM      8  O   LIG    1       -2.307   3.787   0.056  0.00  0.00    -0.650 OA
ATOM      9  N   LIG    1        1.147   1.890   0.001  0.00  0.00    -0.700 N 
ATOM     10  H   LIG    1        1.988   1.407  -0.013  0.00  0.00    +0.370 HD
ENDROOT
BRANCH   5  11
ATOM     11  C   LIG    1       -0.056   5.443   0.034  0.00  0.00    +0.250 C 
BRANCH  11  12
ATOM     12  N   LIG    1       -0.203   5.939  -1.341  0.00  0.00    -0.520 NA
ATOM     13  C   LIG    1        0.713   5.241  -2.255  0.00  0.00    +0.170 C 
ATOM     14  C   LIG    1        0.484   5.745  -3.682  0.00  0.00    +0.190 C 
ATOM     15  O   LIG    1        0.663   7.163  -3.716  0.00  0.00    -0.400 OA
ATOM     16  C   LIG    1       -0.214   7.875  -2.838  0.00  0.00    +0.200 C 
ATOM     17  C   LIG    1        0.008   7.393  -1.402  0.00  0.00    +0.120 C 
ENDBRANCH  11  12
ENDBRANCH   5  11
TORSDOF 2
ENDMDL
