MODEL        1
REMARK  Name = ZINC000003163158
REMARK                            x       y       z     vdW  Elec       q    Type
REMARK                         _______ _______ _______ _____ _____    ______ ____
ROOT
ATOM      1  C   LIG    1       -3.734   1.664   0.029  0.00  0.00    +0.150 C 
ATOM      2  C   LIG    1       -4.103   2.015   1.484  0.00  0.00    -0.280 C 
ATOM      3  S   LIG    1       -5.932   1.832   1.498  0.00  0.00    +2.380 S 
ATOM      4  C   LIG    1       -5.936   0.420   0.321  0.00  0.00    -0.340 C 
ATOM      5  O   LIG    1       -6.534   2.967   0.891  0.00  0.00    -0.940 OA
ATOM      6  O   LIG    1       -6.363   1.393   2.779  0.00  0.00    -0.940 OA
ATOM      7  C   LIG    1       -4.771   0.760  -0.626  0.00  0.00    +0.190 C 
ENDROOT
BRANCH   1   8
ATOM      8  N   LIG    1       -2.433   0.981   0.019  0.00  0.00    -0.640 NA
ATOM      9  H   LIG    1       -2.361   0.351  -0.766  0.00  0.00    +0.370 HD
BRANCH   8  10
ATOM     10  C   LIG    1       -1.330   1.951   0.019  0.00  0.00    +0.080 C 
BRANCH  10  12
ATOM     11  O   LIG    1        0.002  -0.004   0.002  0.00  0.00    -0.680 OA
ATOM     12  C   LIG    1       -0.015   1.215   0.009  0.00  0.00    +0.490 C 
ATOM     13  O   LIG    1        1.033   1.839   0.002  0.00  0.00    -0.710 OA
ENDBRANCH  10  12
ENDBRANCH   8  10
ENDBRANCH   1   8
BRANCH   7  14
ATOM     14  O   LIG    1       -4.135  -0.453  -1.033  0.00  0.00    -0.530 OA
ATOM     15  H   LIG    1       -4.713  -1.056  -1.520  0.00  0.00    +0.380 HD
ENDBRANCH   7  14
TORSDOF 4
ENDMDL
MODEL        2
REMARK  Name = ZINC000040457309
REMARK                            x       y       z     vdW  Elec       q    Type
REMARK                         _______ _______ _______ _____ _____    ______ ____
ROOT
ATOM      1  C   LIG    1        2.037  -0.137   1.398  0.00  0.00    +0.360 A 
ATOM      2  N   LIG    1        2.662   0.644   0.524  0.00  0.00    -0.310 NA
ATOM      3  N   LIG    1        3.894   0.972   0.719  0.00  0.00    -0.230 NA
ATOM      4  C   LIG    1        4.538   0.527   1.792  0.00  0.00    +0.280 A 
ATOM      5  N   LIG    1        3.913  -0.254   2.665  0.00  0.00    -0.220 NA
ATOM      6  N   LIG    1        2.679  -0.577   2.474  0.00  0.00    -0.250 NA
ENDROOT
BRANCH   4   7
ATOM      7  N   LIG    1        5.865   0.879   2.001  0.00  0.00    -0.690 N 
ATOM      8  H   LIG    1        6.321   1.450   1.363  0.00  0.00    +0.400 HD
BRANCH   7   9
ATOM      9  C   LIG    1        6.575   0.389   3.184  0.00  0.00    +0.430 C 
ATOM     10  C   LIG    1        7.459   1.504   3.747  0.00  0.00    +0.010 C 
BRANCH   9  11
ATOM     11  O   LIG    1        7.390  -0.728   2.823  0.00  0.00    -0.590 OA
ATOM     12  H   LIG    1        7.890  -1.104   3.559  0.00  0.00    +0.380 HD
ENDBRANCH   9  11
ENDBRANCH   7   9
ENDBRANCH   4   7
BRANCH   1  13
ATOM     13  N   LIG    1        0.711  -0.489   1.189  0.00  0.00    -0.650 NA
BRANCH  13  15
ATOM     14  C   LIG    1       -0.019   1.526   0.010  0.00  0.00    -0.030 C 
ATOM     15  C   LIG    1        0.002  -0.004   0.002  0.00  0.00    +0.310 C 
BRANCH  15  16
ATOM     16  O   LIG    1       -1.339  -0.499   0.012  0.00  0.00    -0.560 OA
ATOM     17  H   LIG    1       -1.868  -0.216  -0.746  0.00  0.00    +0.360 HD
ENDBRANCH  15  16
ENDBRANCH  13  15
ENDBRANCH   1  13
TORSDOF 6
ENDMDL
MODEL        3
REMARK  Name = ZINC000040457307
REMARK                            x       y       z     vdW  Elec       q    Type
REMARK                         _______ _______ _______ _____ _____    ______ ____
ROOT
ATOM      1  C   LIG    1       -1.689  -1.671  -0.680  0.00  0.00    +0.290 A 
ATOM      2  N   LIG    1       -0.745  -2.325  -1.348  0.00  0.00    -0.220 NA
ATOM      3  N   LIG    1       -1.040  -3.403  -1.992  0.00  0.00    -0.250 NA
ATOM      4  C   LIG    1       -2.287  -3.860  -1.987  0.00  0.00    +0.360 A 
ATOM      5  N   LIG    1       -3.231  -3.207  -1.319  0.00  0.00    -0.280 NA
ATOM      6  N   LIG    1       -2.935  -2.131  -0.671  0.00  0.00    -0.230 NA
ENDROOT
BRANCH   1   7
ATOM      7  N   LIG    1       -1.372  -0.511   0.012  0.00  0.00    -0.720 N 
ATOM      8  H   LIG    1       -2.061  -0.036   0.503  0.00  0.00    +0.400 HD
BRANCH   7  10
ATOM      9  C   LIG    1       -0.019   1.526   0.010  0.00  0.00    +0.010 C 
ATOM     10  C   LIG    1        0.002  -0.004   0.002  0.00  0.00    +0.450 C 
BRANCH  10  11
ATOM     11  O   LIG    1        0.693  -0.477   1.160  0.00  0.00    -0.580 OA
ATOM     12  H   LIG    1        0.294  -0.202   1.996  0.00  0.00    +0.370 HD
ENDBRANCH  10  11
ENDBRANCH   7  10
ENDBRANCH   1   7
BRANCH   4  13
ATOM     13  N   LIG    1       -2.604  -5.020  -2.680  0.00  0.00    -0.700 NA
BRANCH  13  14
ATOM     14  C   LIG    1       -3.979  -5.524  -2.674  0.00  0.00    +0.330 C 
ATOM     15  C   LIG    1       -4.057  -6.806  -3.507  0.00  0.00    +0.010 C 
BRANCH  14  16
ATOM     16  O   LIG    1       -4.850  -4.539  -3.235  0.00  0.00    -0.590 OA
ATOM     17  H   LIG    1       -4.637  -4.300  -4.147  0.00  0.00    +0.350 HD
ENDBRANCH  14  16
ENDBRANCH  13  14
ENDBRANCH   4  13
TORSDOF 6
ENDMDL
MODEL        4
REMARK  Name = ZINC000040457307
REMARK                            x       y       z     vdW  Elec       q    Type
REMARK                         _______ _______ _______ _____ _____    ______ ____
ROOT
ATOM      1  C   LIG    1       -2.241  -0.182  -1.019  0.00  0.00    +0.360 A 
ATOM      2  N   LIG    1       -1.825   0.588  -2.017  0.00  0.00    -0.310 NA
ATOM      3  N   LIG    1       -2.633   0.894  -2.975  0.00  0.00    -0.230 NA
ATOM      4  C   LIG    1       -3.881   0.439  -2.963  0.00  0.00    +0.280 A 
ATOM      5  N   LIG    1       -4.296  -0.332  -1.965  0.00  0.00    -0.220 NA
ATOM      6  N   LIG    1       -3.487  -0.642  -1.009  0.00  0.00    -0.250 NA
ENDROOT
BRANCH   4   7
ATOM      7  N   LIG    1       -4.750   0.768  -3.994  0.00  0.00    -0.690 N 
ATOM      8  H   LIG    1       -4.446   1.331  -4.724  0.00  0.00    +0.400 HD
BRANCH   7   9
ATOM      9  C   LIG    1       -6.126   0.266  -3.981  0.00  0.00    +0.430 C 
ATOM     10  C   LIG    1       -6.534  -0.141  -5.398  0.00  0.00    +0.010 C 
BRANCH   9  11
ATOM     11  O   LIG    1       -7.002   1.291  -3.508  0.00  0.00    -0.590 OA
ATOM     12  H   LIG    1       -7.932   1.028  -3.473  0.00  0.00    +0.380 HD
ENDBRANCH   9  11
ENDBRANCH   7   9
ENDBRANCH   4   7
BRANCH   1  13
ATOM     13  N   LIG    1       -1.372  -0.511   0.012  0.00  0.00    -0.650 NA
BRANCH  13  15
ATOM     14  C   LIG    1       -0.019   1.526   0.010  0.00  0.00    -0.030 C 
ATOM     15  C   LIG    1        0.002  -0.004   0.002  0.00  0.00    +0.310 C 
BRANCH  15  16
ATOM     16  O   LIG    1        0.693  -0.477   1.160  0.00  0.00    -0.560 OA
ATOM     17  H   LIG    1        1.611  -0.180   1.219  0.00  0.00    +0.360 HD
ENDBRANCH  15  16
ENDBRANCH  13  15
ENDBRANCH   1  13
TORSDOF 6
ENDMDL
MODEL        5
REMARK  Name = ZINC000004228257
REMARK                            x       y       z     vdW  Elec       q    Type
REMARK                         _______ _______ _______ _____ _____    ______ ____
ROOT
ATOM      1  C   LIG    1        0.849  -2.021  -1.205  0.00  0.00    +0.210 C 
ATOM      2  C   LIG    1        1.552  -2.525  -2.474  0.00  0.00    +0.260 C 
ATOM      3  N   LIG    1        0.706  -2.201  -3.631  0.00  0.00    -0.730 N 
ATOM      4  H   LIG    1        1.094  -1.810  -4.430  0.00  0.00    +0.390 HD
ATOM      5  C   LIG    1       -0.654  -2.461  -3.565  0.00  0.00    +0.390 A 
ATOM      6  C   LIG    1       -1.257  -2.676  -2.334  0.00  0.00    -0.160 A 
ATOM      7  C   LIG    1       -2.631  -2.934  -2.287  0.00  0.00    +0.520 A 
ATOM      8  N   LIG    1       -3.322  -2.966  -3.447  0.00  0.00    -0.710 NA
ATOM      9  C   LIG    1       -2.684  -2.750  -4.629  0.00  0.00    +0.580 A 
ATOM     10  O   LIG    1       -3.194  -3.127  -1.219  0.00  0.00    -0.640 OA
ATOM     11  N   LIG    1       -1.392  -2.507  -4.681  0.00  0.00    -0.680 NA
ATOM     12  N   LIG    1       -0.488  -2.634  -1.150  0.00  0.00    -0.730 N 
ATOM     13  H   LIG    1       -0.833  -3.000  -0.321  0.00  0.00    +0.390 HD
ENDROOT
BRANCH   9  14
ATOM     14  N   LIG    1       -3.405  -2.788  -5.796  0.00  0.00    -0.840 N 
ATOM     15  H   LIG    1       -2.961  -2.637  -6.645  0.00  0.00    +0.390 HD
ATOM     16  H   LIG    1       -4.358  -2.967  -5.771  0.00  0.00    +0.400 HD
ENDBRANCH   9  14
BRANCH   1  17
ATOM     17  C   LIG    1        0.718  -0.497  -1.257  0.00  0.00    +0.180 C 
BRANCH  17  19
ATOM     18  C   LIG    1       -0.019   1.526   0.010  0.00  0.00    +0.000 C 
ATOM     19  C   LIG    1        0.002  -0.004   0.002  0.00  0.00    +0.190 C 
BRANCH  19  20
ATOM     20  O   LIG    1        0.693  -0.477   1.160  0.00  0.00    -0.560 OA
ATOM     21  H   LIG    1        1.611  -0.180   1.219  0.00  0.00    +0.360 HD
ENDBRANCH  19  20
ENDBRANCH  17  19
BRANCH  17  22
ATOM     22  O   LIG    1        2.019   0.090  -1.326  0.00  0.00    -0.560 OA
ATOM     23  H   LIG    1        2.587  -0.122  -0.573  0.00  0.00    +0.360 HD
ENDBRANCH  17  22
ENDBRANCH   1  17
TORSDOF 5
ENDMDL
MODEL        6
REMARK  Name = ZINC000003683855
REMARK                            x       y       z     vdW  Elec       q    Type
REMARK                         _______ _______ _______ _____ _____    ______ ____
ROOT
ATOM      1  N   LIG    1        2.412   3.964  -0.016  0.00  0.00    -0.600 N 
ENDROOT
BRANCH   1   7
ATOM      2  O   LIG    1        0.235  -0.002  -0.814  0.00  0.00    -0.620 OA
ATOM      3  C   LIG    1        0.193   1.152  -0.419  0.00  0.00    +0.610 A 
ATOM      4  N   LIG    1       -0.960   1.649   0.022  0.00  0.00    -0.640 NA
ATOM      5  C   LIG    1       -1.048   2.894   0.458  0.00  0.00    +0.330 A 
ATOM      6  C   LIG    1        0.075   3.709   0.460  0.00  0.00    -0.230 A 
ATOM      7  C   LIG    1        1.278   3.191  -0.002  0.00  0.00    +0.440 A 
ATOM      8  F   LIG    1        0.000   4.984   0.902  0.00  0.00    -0.160 F 
ATOM      9  N   LIG    1        1.314   1.897  -0.435  0.00  0.00    -0.660 NA
ENDBRANCH   1   7
BRANCH   1  10
ATOM     10  C   LIG    1        2.303   5.422  -0.113  0.00  0.00    +0.310 C 
BRANCH  10  11
ATOM     11  C   LIG    1        2.378   6.033   1.288  0.00  0.00    +0.150 C 
BRANCH  11  12
ATOM     12  O   LIG    1        3.680   5.812   1.835  0.00  0.00    -0.570 OA
ATOM     13  H   LIG    1        3.800   6.174   2.724  0.00  0.00    +0.370 HD
ENDBRANCH  11  12
ENDBRANCH  10  11
ENDBRANCH   1  10
BRANCH   1  14
ATOM     14  C   LIG    1        3.731   3.332   0.064  0.00  0.00    +0.310 C 
BRANCH  14  15
ATOM     15  C   LIG    1        4.234   3.020  -1.347  0.00  0.00    +0.160 C 
BRANCH  15  16
ATOM     16  O   LIG    1        4.443   4.241  -2.059  0.00  0.00    -0.570 OA
ATOM     17  H   LIG    1        4.763   4.120  -2.963  0.00  0.00    +0.370 HD
ENDBRANCH  15  16
ENDBRANCH  14  15
ENDBRANCH   1  14
TORSDOF 7
ENDMDL
MODEL        7
REMARK  Name = ZINC000013585233
REMARK                            x       y       z     vdW  Elec       q    Type
REMARK                         _______ _______ _______ _____ _____    ______ ____
ROOT
ATOM      1  C   LIG    1        0.739  -2.027  -1.265  0.00  0.00    +0.200 C 
ATOM      2  C   LIG    1        1.472  -2.530  -2.518  0.00  0.00    +0.250 C 
ATOM      3  N   LIG    1        2.868  -2.076  -2.450  0.00  0.00    -0.730 N 
ATOM      4  H   LIG    1        3.296  -1.683  -3.227  0.00  0.00    +0.390 HD
ATOM      5  C   LIG    1        3.565  -2.219  -1.260  0.00  0.00    +0.380 A 
ATOM      6  C   LIG    1        2.875  -2.438  -0.077  0.00  0.00    -0.150 A 
ATOM      7  C   LIG    1        3.594  -2.576   1.115  0.00  0.00    +0.520 A 
ATOM      8  N   LIG    1        4.942  -2.490   1.069  0.00  0.00    -0.710 NA
ATOM      9  C   LIG    1        5.572  -2.275  -0.118  0.00  0.00    +0.580 A 
ATOM     10  O   LIG    1        3.017  -2.770   2.174  0.00  0.00    -0.630 OA
ATOM     11  N   LIG    1        4.901  -2.144  -1.243  0.00  0.00    -0.680 NA
ATOM     12  N   LIG    1        1.464  -2.521  -0.083  0.00  0.00    -0.720 N 
ATOM     13  H   LIG    1        0.985  -2.895   0.673  0.00  0.00    +0.400 HD
ENDROOT
BRANCH   9  14
ATOM     14  N   LIG    1        6.942  -2.193  -0.143  0.00  0.00    -0.840 N 
ATOM     15  H   LIG    1        7.403  -2.040  -0.982  0.00  0.00    +0.390 HD
ATOM     16  H   LIG    1        7.448  -2.287   0.679  0.00  0.00    +0.400 HD
ENDBRANCH   9  14
BRANCH   1  17
ATOM     17  C   LIG    1        0.718  -0.497  -1.257  0.00  0.00    +0.160 C 
BRANCH  17  19
ATOM     18  C   LIG    1       -0.019   1.526   0.010  0.00  0.00    -0.010 C 
ATOM     19  C   LIG    1        0.002  -0.004   0.002  0.00  0.00    +0.170 C 
BRANCH  19  20
ATOM     20  O   LIG    1        0.693  -0.477   1.160  0.00  0.00    -0.530 OA
ATOM     21  H   LIG    1        1.611  -0.180   1.219  0.00  0.00    +0.380 HD
ENDBRANCH  19  20
ENDBRANCH  17  19
BRANCH  17  22
ATOM     22  O   LIG    1        0.027  -0.024  -2.414  0.00  0.00    -0.560 OA
ATOM     23  H   LIG    1       -0.891  -0.322  -2.473  0.00  0.00    +0.370 HD
ENDBRANCH  17  22
ENDBRANCH   1  17
TORSDOF 5
ENDMDL
MODEL        8
REMARK  Name = ZINC000002539827
REMARK                            x       y       z     vdW  Elec       q    Type
REMARK                         _______ _______ _______ _____ _____    ______ ____
ROOT
ATOM      1  C   LIG    1        0.739  -2.027  -1.265  0.00  0.00    +0.200 C 
ATOM      2  C   LIG    1        1.442  -2.530  -2.535  0.00  0.00    +0.250 C 
ATOM      3  N   LIG    1        0.655  -2.099  -3.700  0.00  0.00    -0.720 N 
ATOM      4  H   LIG    1        1.093  -1.706  -4.471  0.00  0.00    +0.390 HD
ATOM      5  C   LIG    1       -0.721  -2.263  -3.681  0.00  0.00    +0.410 A 
ATOM      6  C   LIG    1       -1.375  -2.483  -2.477  0.00  0.00    -0.180 A 
ATOM      7  C   LIG    1       -2.764  -2.643  -2.476  0.00  0.00    +0.520 A 
ATOM      8  N   LIG    1       -3.421  -2.578  -3.655  0.00  0.00    -0.710 NA
ATOM      9  C   LIG    1       -2.734  -2.363  -4.810  0.00  0.00    +0.580 A 
ATOM     10  O   LIG    1       -3.370  -2.836  -1.433  0.00  0.00    -0.640 OA
ATOM     11  N   LIG    1       -1.427  -2.211  -4.817  0.00  0.00    -0.680 NA
ATOM     12  N   LIG    1       -0.639  -2.543  -1.271  0.00  0.00    -0.740 N 
ATOM     13  H   LIG    1       -1.034  -2.917  -0.468  0.00  0.00    +0.390 HD
ENDROOT
BRANCH   9  14
ATOM     14  N   LIG    1       -3.421  -2.302  -5.996  0.00  0.00    -0.840 N 
ATOM     15  H   LIG    1       -2.943  -2.149  -6.826  0.00  0.00    +0.390 HD
ATOM     16  H   LIG    1       -4.385  -2.412  -6.004  0.00  0.00    +0.400 HD
ENDBRANCH   9  14
BRANCH   1  17
ATOM     17  C   LIG    1        0.718  -0.497  -1.257  0.00  0.00    +0.150 C 
BRANCH  17  19
ATOM     18  C   LIG    1       -0.019   1.526   0.010  0.00  0.00    +0.000 C 
ATOM     19  C   LIG    1        0.002  -0.004   0.002  0.00  0.00    +0.180 C 
BRANCH  19  20
ATOM     20  O   LIG    1        0.693  -0.477   1.160  0.00  0.00    -0.560 OA
ATOM     21  H   LIG    1        1.611  -0.180   1.219  0.00  0.00    +0.370 HD
ENDBRANCH  19  20
ENDBRANCH  17  19
BRANCH  17  22
ATOM     22  O   LIG    1        0.027  -0.024  -2.414  0.00  0.00    -0.550 OA
ATOM     23  H   LIG    1       -0.891  -0.322  -2.473  0.00  0.00    +0.380 HD
ENDBRANCH  17  22
ENDBRANCH   1  17
TORSDOF 5
ENDMDL
MODEL        9
REMARK  Name = ZINC000003830728
REMARK                            x       y       z     vdW  Elec       q    Type
REMARK                         _______ _______ _______ _____ _____    ______ ____
ROOT
ATOM      1  C   LIG    1       -0.363   1.566  -0.255  0.00  0.00    +0.060 C 
ATOM      2  C   LIG    1       -0.224   0.043  -0.201  0.00  0.00    +0.110 C 
ATOM      3  O   LIG    1       -1.513  -0.557   0.009  0.00  0.00    -0.350 OA
ATOM      4  C   LIG    1       -1.302  -1.734   0.819  0.00  0.00    +0.460 C 
ATOM      5  C   LIG    1       -0.233  -1.281   1.845  0.00  0.00    +0.180 C 
ATOM      6  C   LIG    1        0.672  -0.359   0.986  0.00  0.00    +0.120 C 
ENDROOT
BRANCH   4   7
ATOM      7  N   LIG    1       -0.799  -2.840   0.000  0.00  0.00    -0.540 N 
ATOM      8  C   LIG    1        0.365  -2.687  -0.707  0.00  0.00    +0.230 A 
ATOM      9  C   LIG    1        0.828  -3.707  -1.461  0.00  0.00    -0.100 A 
ATOM     10  C   LIG    1        0.095  -4.920  -1.504  0.00  0.00    +0.510 A 
ATOM     11  N   LIG    1       -1.046  -5.029  -0.794  0.00  0.00    -0.680 NA
ATOM     12  O   LIG    1        0.493  -5.854  -2.177  0.00  0.00    -0.580 OA
ATOM     13  F   LIG    1        1.974  -3.574  -2.164  0.00  0.00    -0.140 F 
ATOM     14  C   LIG    1       -1.482  -3.999  -0.047  0.00  0.00    +0.650 A 
ATOM     15  O   LIG    1       -2.512  -4.113   0.589  0.00  0.00    -0.600 OA
ENDBRANCH   4   7
BRANCH   5  16
ATOM     16  O   LIG    1        0.504  -2.399   2.342  0.00  0.00    -0.530 OA
ATOM     17  H   LIG    1        1.185  -2.166   2.987  0.00  0.00    +0.380 HD
ENDBRANCH   5  16
BRANCH   6  18
ATOM     18  O   LIG    1        1.064   0.794   1.733  0.00  0.00    -0.550 OA
ATOM     19  H   LIG    1        1.632   1.405   1.244  0.00  0.00    +0.380 HD
ENDBRANCH   6  18
TORSDOF 3
ENDMDL
MODEL       10
REMARK  Name = ZINC000003830726
REMARK                            x       y       z     vdW  Elec       q    Type
REMARK                         _______ _______ _______ _____ _____    ______ ____
ROOT
ATOM      1  C   LIG    1       -0.641   1.571  -0.433  0.00  0.00    +0.060 C 
ATOM      2  C   LIG    1       -0.410   0.061  -0.340  0.00  0.00    +0.120 C 
ATOM      3  O   LIG    1       -1.642  -0.602  -0.010  0.00  0.00    -0.360 OA
ATOM      4  C   LIG    1       -1.302  -1.734   0.819  0.00  0.00    +0.440 C 
ATOM      5  C   LIG    1       -0.187  -1.184   1.744  0.00  0.00    +0.170 C 
ATOM      6  C   LIG    1        0.595  -0.246   0.787  0.00  0.00    +0.110 C 
ENDROOT
BRANCH   4   7
ATOM      7  N   LIG    1       -0.799  -2.840   0.000  0.00  0.00    -0.540 N 
ATOM      8  C   LIG    1       -0.539  -2.637  -1.330  0.00  0.00    +0.250 A 
ATOM      9  C   LIG    1       -0.075  -3.657  -2.084  0.00  0.00    -0.110 A 
ATOM     10  C   LIG    1        0.133  -4.921  -1.479  0.00  0.00    +0.510 A 
ATOM     11  N   LIG    1       -0.135  -5.080  -0.167  0.00  0.00    -0.680 NA
ATOM     12  O   LIG    1        0.551  -5.856  -2.138  0.00  0.00    -0.590 OA
ATOM     13  F   LIG    1        0.187  -3.474  -3.397  0.00  0.00    -0.150 F 
ATOM     14  C   LIG    1       -0.592  -4.045   0.562  0.00  0.00    +0.660 A 
ATOM     15  O   LIG    1       -0.829  -4.203   1.744  0.00  0.00    -0.590 OA
ENDBRANCH   4   7
BRANCH   5  16
ATOM     16  O   LIG    1        0.650  -2.241   2.217  0.00  0.00    -0.500 OA
ATOM     17  H   LIG    1        1.364  -1.946   2.800  0.00  0.00    +0.370 HD
ENDBRANCH   5  16
BRANCH   6  18
ATOM     18  O   LIG    1        1.749  -0.911   0.268  0.00  0.00    -0.530 OA
ATOM     19  H   LIG    1        2.276  -0.370  -0.337  0.00  0.00    +0.370 HD
ENDBRANCH   6  18
TORSDOF 3
ENDMDL
MODEL       11
REMARK  Name = ZINC000003830725
REMARK                            x       y       z     vdW  Elec       q    Type
REMARK                         _______ _______ _______ _____ _____    ______ ____
ROOT
ATOM      1  C   LIG    1       -0.019   1.526   0.010  0.00  0.00    +0.050 C 
ATOM      2  C   LIG    1        0.002  -0.004   0.002  0.00  0.00    +0.120 C 
ATOM      3  O   LIG    1        0.734  -0.491  -1.144  0.00  0.00    -0.350 OA
ATOM      4  C   LIG    1        1.116  -1.842  -0.806  0.00  0.00    +0.400 C 
ATOM      5  C   LIG    1        1.531  -1.775   0.681  0.00  0.00    +0.150 C 
ATOM      6  C   LIG    1        0.779  -0.538   1.226  0.00  0.00    +0.120 C 
ENDROOT
BRANCH   4   7
ATOM      7  N   LIG    1        2.244  -2.276  -1.634  0.00  0.00    -0.530 N 
ATOM      8  C   LIG    1        2.151  -3.439  -2.353  0.00  0.00    +0.230 A 
ATOM      9  C   LIG    1        3.191  -3.838  -3.116  0.00  0.00    -0.100 A 
ATOM     10  C   LIG    1        4.362  -3.040  -3.156  0.00  0.00    +0.500 A 
ATOM     11  N   LIG    1        4.413  -1.903  -2.433  0.00  0.00    -0.680 NA
ATOM     12  O   LIG    1        5.313  -3.379  -3.837  0.00  0.00    -0.590 OA
ATOM     13  F   LIG    1        3.116  -4.981  -3.832  0.00  0.00    -0.140 F 
ATOM     14  C   LIG    1        3.360  -1.526  -1.685  0.00  0.00    +0.650 A 
ATOM     15  O   LIG    1        3.421  -0.498  -1.039  0.00  0.00    -0.540 OA
ENDBRANCH   4   7
BRANCH   5  16
ATOM     16  O   LIG    1        2.944  -1.599   0.798  0.00  0.00    -0.490 OA
ATOM     17  H   LIG    1        3.260  -1.551   1.711  0.00  0.00    +0.360 HD
ENDBRANCH   5  16
BRANCH   6  18
ATOM     18  O   LIG    1        1.704   0.442   1.699  0.00  0.00    -0.530 OA
ATOM     19  H   LIG    1        1.287   1.240   2.053  0.00  0.00    +0.370 HD
ENDBRANCH   6  18
TORSDOF 3
ENDMDL
MODEL       12
REMARK  Name = ZINC000003830727
REMARK                            x       y       z     vdW  Elec       q    Type
REMARK                         _______ _______ _______ _____ _____    ______ ____
ROOT
ATOM      1  C   LIG    1       -0.019   1.526   0.010  0.00  0.00    +0.060 C 
ATOM      2  C   LIG    1        0.002  -0.004   0.002  0.00  0.00    +0.120 C 
ATOM      3  O   LIG    1        0.734  -0.491  -1.144  0.00  0.00    -0.350 OA
ATOM      4  C   LIG    1        1.116  -1.842  -0.806  0.00  0.00    +0.410 C 
ATOM      5  C   LIG    1        1.531  -1.775   0.681  0.00  0.00    +0.160 C 
ATOM      6  C   LIG    1        0.779  -0.538   1.226  0.00  0.00    +0.130 C 
ENDROOT
BRANCH   4   7
ATOM      7  N   LIG    1        2.244  -2.276  -1.634  0.00  0.00    -0.530 N 
ATOM      8  C   LIG    1        2.151  -3.439  -2.353  0.00  0.00    +0.240 A 
ATOM      9  C   LIG    1        3.191  -3.838  -3.116  0.00  0.00    -0.100 A 
ATOM     10  C   LIG    1        4.362  -3.040  -3.156  0.00  0.00    +0.500 A 
ATOM     11  N   LIG    1        4.413  -1.903  -2.433  0.00  0.00    -0.680 NA
ATOM     12  O   LIG    1        5.313  -3.379  -3.837  0.00  0.00    -0.590 OA
ATOM     13  F   LIG    1        3.116  -4.981  -3.832  0.00  0.00    -0.140 F 
ATOM     14  C   LIG    1        3.360  -1.526  -1.685  0.00  0.00    +0.660 A 
ATOM     15  O   LIG    1        3.421  -0.498  -1.039  0.00  0.00    -0.550 OA
ENDBRANCH   4   7
BRANCH   5  16
ATOM     16  O   LIG    1        2.944  -1.599   0.798  0.00  0.00    -0.500 OA
ATOM     17  H   LIG    1        3.260  -1.551   1.711  0.00  0.00    +0.360 HD
ENDBRANCH   5  16
BRANCH   6  18
ATOM     18  O   LIG    1       -0.120  -0.918   2.270  0.00  0.00    -0.560 OA
ATOM     19  H   LIG    1       -0.618  -0.181   2.648  0.00  0.00    +0.380 HD
ENDBRANCH   6  18
TORSDOF 3
ENDMDL
MODEL       13
REMARK  Name = ZINC000003865777
REMARK                            x       y       z     vdW  Elec       q    Type
REMARK                         _______ _______ _______ _____ _____    ______ ____
ROOT
ATOM      1  C   LIG    1       -3.734   1.664   0.029  0.00  0.00    +0.170 C 
ATOM      2  C   LIG    1       -4.103   2.015   1.484  0.00  0.00    -0.280 C 
ATOM      3  S   LIG    1       -5.932   1.832   1.498  0.00  0.00    +2.380 S 
ATOM      4  C   LIG    1       -5.936   0.420   0.321  0.00  0.00    -0.320 C 
ATOM      5  O   LIG    1       -6.534   2.967   0.891  0.00  0.00    -0.930 OA
ATOM      6  O   LIG    1       -6.363   1.393   2.779  0.00  0.00    -0.940 OA
ATOM      7  C   LIG    1       -4.771   0.760  -0.626  0.00  0.00    +0.200 C 
ENDROOT
BRANCH   1   8
ATOM      8  N   LIG    1       -2.433   0.981   0.019  0.00  0.00    -0.650 NA
ATOM      9  H   LIG    1       -2.361   0.351  -0.766  0.00  0.00    +0.350 HD
BRANCH   8  10
ATOM     10  C   LIG    1       -1.330   1.951   0.019  0.00  0.00    +0.090 C 
BRANCH  10  12
ATOM     11  O   LIG    1        0.002  -0.004   0.002  0.00  0.00    -0.680 OA
ATOM     12  C   LIG    1       -0.015   1.215   0.009  0.00  0.00    +0.490 C 
ATOM     13  O   LIG    1        1.033   1.839   0.002  0.00  0.00    -0.700 OA
ENDBRANCH  10  12
ENDBRANCH   8  10
ENDBRANCH   1   8
BRANCH   7  14
ATOM     14  O   LIG    1       -5.291   1.423  -1.781  0.00  0.00    -0.560 OA
ATOM     15  H   LIG    1       -5.912   0.889  -2.295  0.00  0.00    +0.380 HD
ENDBRANCH   7  14
TORSDOF 4
ENDMDL
MODEL       14
REMARK  Name = ZINC000004114168
REMARK                            x       y       z     vdW  Elec       q    Type
REMARK                         _______ _______ _______ _____ _____    ______ ____
ROOT
ATOM      1  O   LIG    1        0.002  -0.004   0.002  0.00  0.00    -0.480 OA
ATOM      2  C   LIG    1       -0.014   1.204   0.009  0.00  0.00    +0.440 C 
ATOM      3  O   LIG    1       -1.121   1.960   0.029  0.00  0.00    -0.360 OA
ATOM      4  C   LIG    1       -0.802   3.296   0.519  0.00  0.00    +0.270 C 
ATOM      5  C   LIG    1        0.659   3.531   0.071  0.00  0.00    +0.270 C 
ATOM      6  C   LIG    1        1.212   2.091   0.002  0.00  0.00    +0.250 C 
ATOM      7  O   LIG    1        2.037   1.820   1.136  0.00  0.00    -0.830 OA
ENDROOT
BRANCH   4   8
ATOM      8  C   LIG    1       -1.718   4.318  -0.104  0.00  0.00    -0.060 A 
ATOM      9  C   LIG    1       -2.173   4.141  -1.397  0.00  0.00    +0.050 A 
ATOM     10  C   LIG    1       -3.013   5.078  -1.968  0.00  0.00    -0.010 A 
ATOM     11  C   LIG    1       -3.398   6.192  -1.246  0.00  0.00    +0.000 A 
ATOM     12  C   LIG    1       -2.943   6.369   0.047  0.00  0.00    -0.010 A 
ATOM     13  C   LIG    1       -2.106   5.429   0.620  0.00  0.00    +0.020 A 
ENDBRANCH   4   8
BRANCH   5  14
ATOM     14  O   LIG    1        1.370   4.304   1.041  0.00  0.00    -0.540 OA
ATOM     15  H   LIG    1        2.291   4.478   0.805  0.00  0.00    +0.380 HD
ENDBRANCH   5  14
BRANCH   5  16
ATOM     16  O   LIG    1        0.703   4.162  -1.210  0.00  0.00    -0.560 OA
ATOM     17  H   LIG    1        1.598   4.331  -1.535  0.00  0.00    +0.380 HD
ENDBRANCH   5  16
BRANCH   6  18
ATOM     18  O   LIG    1        1.948   1.899  -1.208  0.00  0.00    -0.590 OA
ATOM     19  H   LIG    1        2.320   1.011  -1.305  0.00  0.00    +0.370 HD
ENDBRANCH   6  18
TORSDOF 4
ENDMDL
MODEL       15
REMARK  Name = ZINC000004164422
REMARK                            x       y       z     vdW  Elec       q    Type
REMARK                         _______ _______ _______ _____ _____    ______ ____
ROOT
ATOM      1  C   LIG    1       -0.019   1.526   0.010  0.00  0.00    +0.070 C 
ATOM      2  C   LIG    1        0.002  -0.004   0.002  0.00  0.00    +0.120 C 
ATOM      3  O   LIG    1        0.734  -0.491  -1.144  0.00  0.00    -0.350 OA
ATOM      4  C   LIG    1        1.116  -1.842  -0.806  0.00  0.00    +0.440 C 
ATOM      5  C   LIG    1        1.531  -1.775   0.681  0.00  0.00    +0.180 C 
ATOM      6  C   LIG    1        0.779  -0.538   1.226  0.00  0.00    +0.120 C 
ENDROOT
BRANCH   4   7
ATOM      7  N   LIG    1       -0.020  -2.751  -0.980  0.00  0.00    -0.560 N 
ATOM      8  C   LIG    1       -1.214  -2.264  -1.444  0.00  0.00    +0.240 A 
ATOM      9  C   LIG    1       -2.261  -3.103  -1.605  0.00  0.00    -0.100 A 
ATOM     10  C   LIG    1       -2.099  -4.475  -1.288  0.00  0.00    +0.510 A 
ATOM     11  N   LIG    1       -0.907  -4.913  -0.834  0.00  0.00    -0.670 NA
ATOM     12  O   LIG    1       -3.027  -5.251  -1.425  0.00  0.00    -0.580 OA
ATOM     13  F   LIG    1       -3.445  -2.641  -2.062  0.00  0.00    -0.140 F 
ATOM     14  C   LIG    1        0.120  -4.057  -0.688  0.00  0.00    +0.650 A 
ATOM     15  O   LIG    1        1.189  -4.467  -0.278  0.00  0.00    -0.600 OA
ENDBRANCH   4   7
BRANCH   5  16
ATOM     16  O   LIG    1        2.944  -1.599   0.798  0.00  0.00    -0.540 OA
ATOM     17  H   LIG    1        3.260  -1.551   1.711  0.00  0.00    +0.380 HD
ENDBRANCH   5  16
BRANCH   6  18
ATOM     18  O   LIG    1       -0.120  -0.918   2.270  0.00  0.00    -0.550 OA
ATOM     19  H   LIG    1       -0.618  -0.181   2.648  0.00  0.00    +0.380 HD
ENDBRANCH   6  18
TORSDOF 3
ENDMDL
MODEL       16
REMARK  Name = ZINC000004114169
REMARK                            x       y       z     vdW  Elec       q    Type
REMARK                         _______ _______ _______ _____ _____    ______ ____
ROOT
ATOM      1  O   LIG    1        0.002  -0.004   0.002  0.00  0.00    -0.480 OA
ATOM      2  C   LIG    1       -0.014   1.204   0.009  0.00  0.00    +0.440 C 
ATOM      3  O   LIG    1       -1.114   1.979   0.029  0.00  0.00    -0.350 OA
ATOM      4  C   LIG    1       -0.836   3.194  -0.730  0.00  0.00    +0.260 C 
ATOM      5  C   LIG    1        0.667   3.469  -0.510  0.00  0.00    +0.270 C 
ATOM      6  C   LIG    1        1.200   2.110   0.002  0.00  0.00    +0.250 C 
ATOM      7  O   LIG    1        1.735   2.249   1.319  0.00  0.00    -0.830 OA
ENDROOT
BRANCH   4   8
ATOM      8  C   LIG    1       -1.662   4.340  -0.204  0.00  0.00    -0.060 A 
ATOM      9  C   LIG    1       -1.871   4.475   1.155  0.00  0.00    +0.070 A 
ATOM     10  C   LIG    1       -2.629   5.526   1.637  0.00  0.00    -0.010 A 
ATOM     11  C   LIG    1       -3.177   6.442   0.759  0.00  0.00    +0.000 A 
ATOM     12  C   LIG    1       -2.967   6.308  -0.600  0.00  0.00    -0.010 A 
ATOM     13  C   LIG    1       -2.205   5.259  -1.082  0.00  0.00    +0.020 A 
ENDBRANCH   4   8
BRANCH   5  14
ATOM     14  O   LIG    1        0.856   4.487   0.474  0.00  0.00    -0.530 OA
ATOM     15  H   LIG    1        1.783   4.698   0.650  0.00  0.00    +0.380 HD
ENDBRANCH   5  14
BRANCH   5  16
ATOM     16  O   LIG    1        1.299   3.834  -1.739  0.00  0.00    -0.560 OA
ATOM     17  H   LIG    1        2.245   4.017  -1.656  0.00  0.00    +0.380 HD
ENDBRANCH   5  16
BRANCH   6  18
ATOM     18  O   LIG    1        2.193   1.597  -0.889  0.00  0.00    -0.590 OA
ATOM     19  H   LIG    1        2.562   0.745  -0.617  0.00  0.00    +0.370 HD
ENDBRANCH   6  18
TORSDOF 4
ENDMDL
MODEL       17
REMARK  Name = ZINC000004218922
REMARK                            x       y       z     vdW  Elec       q    Type
REMARK                         _______ _______ _______ _____ _____    ______ ____
ROOT
ATOM      1  C   LIG    1        1.740  -2.172  -3.034  0.00  0.00    +0.150 C 
ATOM      2  N   LIG    1        0.931  -1.759  -4.194  0.00  0.00    -0.780 N 
ATOM      3  H   LIG    1        0.631  -0.860  -4.401  0.00  0.00    +0.390 HD
ATOM      4  C   LIG    1        0.690  -2.872  -4.911  0.00  0.00    +0.660 C 
ATOM      5  N   LIG    1        1.240  -3.961  -4.363  0.00  0.00    -0.720 NA
ATOM      6  O   LIG    1        0.045  -2.886  -5.940  0.00  0.00    -0.620 OA
ATOM      7  C   LIG    1        1.904  -3.667  -3.224  0.00  0.00    +0.490 C 
ATOM      8  O   LIG    1        2.503  -4.437  -2.505  0.00  0.00    -0.560 OA
ENDROOT
BRANCH   1   9
ATOM      9  C   LIG    1        0.999  -1.873  -1.729  0.00  0.00    +0.070 C 
BRANCH   9  10
ATOM     10  C   LIG    1        0.880  -0.358  -1.545  0.00  0.00    -0.340 C 
BRANCH  10  12
ATOM     11  C   LIG    1       -0.022   1.810   0.012  0.00  0.00    -0.270 C 
ATOM     12  S   LIG    1        0.002  -0.004   0.002  0.00  0.00    +2.420 S 
ATOM     13  O   LIG    1       -1.334  -0.474  -0.117  0.00  0.00    -0.940 OA
ATOM     14  O   LIG    1        0.801  -0.452   1.088  0.00  0.00    -0.940 OA
ENDBRANCH  10  12
ENDBRANCH   9  10
ENDBRANCH   1   9
TORSDOF 3
ENDMDL
MODEL       18
REMARK  Name = ZINC000004218921
REMARK                            x       y       z     vdW  Elec       q    Type
REMARK                         _______ _______ _______ _____ _____    ______ ____
ROOT
ATOM      1  C   LIG    1        1.740  -2.172  -3.034  0.00  0.00    +0.150 C 
ATOM      2  N   LIG    1        3.144  -1.736  -2.945  0.00  0.00    -0.780 N 
ATOM      3  H   LIG    1        3.462  -0.830  -2.804  0.00  0.00    +0.390 HD
ATOM      4  C   LIG    1        3.899  -2.838  -3.098  0.00  0.00    +0.660 C 
ATOM      5  N   LIG    1        3.164  -3.941  -3.276  0.00  0.00    -0.720 NA
ATOM      6  O   LIG    1        5.115  -2.833  -3.077  0.00  0.00    -0.620 OA
ATOM      7  C   LIG    1        1.841  -3.667  -3.259  0.00  0.00    +0.490 C 
ATOM      8  O   LIG    1        0.928  -4.454  -3.393  0.00  0.00    -0.560 OA
ENDROOT
BRANCH   1   9
ATOM      9  C   LIG    1        0.999  -1.873  -1.729  0.00  0.00    +0.070 C 
BRANCH   9  10
ATOM     10  C   LIG    1        0.880  -0.358  -1.545  0.00  0.00    -0.340 C 
BRANCH  10  12
ATOM     11  C   LIG    1       -0.022   1.810   0.012  0.00  0.00    -0.270 C 
ATOM     12  S   LIG    1        0.002  -0.004   0.002  0.00  0.00    +2.420 S 
ATOM     13  O   LIG    1       -1.334  -0.474  -0.117  0.00  0.00    -0.940 OA
ATOM     14  O   LIG    1        0.801  -0.452   1.088  0.00  0.00    -0.940 OA
ENDBRANCH  10  12
ENDBRANCH   9  10
ENDBRANCH   1   9
TORSDOF 3
ENDMDL
MODEL       19
REMARK  Name = ZINC000005943366
REMARK                            x       y       z     vdW  Elec       q    Type
REMARK                         _______ _______ _______ _____ _____    ______ ____
ROOT
ATOM      1  C   LIG    1        0.047  -1.812   5.055  0.00  0.00    +0.150 A 
ATOM      2  C   LIG    1       -1.075  -2.052   5.768  0.00  0.00    -0.140 A 
ATOM      3  C   LIG    1       -1.046  -1.888   7.174  0.00  0.00    +0.510 A 
ATOM      4  N   LIG    1        0.098  -1.497   7.771  0.00  0.00    -0.690 NA
ATOM      5  C   LIG    1        1.202  -1.265   7.036  0.00  0.00    +0.650 A 
ATOM      6  O   LIG    1        2.227  -0.913   7.588  0.00  0.00    -0.610 OA
ATOM      7  O   LIG    1       -2.045  -2.099   7.838  0.00  0.00    -0.600 OA
ATOM      8  N   LIG    1        1.189  -1.422   5.700  0.00  0.00    -0.670 N 
ATOM      9  H   LIG    1        1.995  -1.250   5.188  0.00  0.00    +0.390 HD
ENDROOT
BRANCH   1  10
ATOM     10  C   LIG    1        0.043  -1.979   3.557  0.00  0.00    +0.180 C 
BRANCH  10  11
ATOM     11  S   LIG    1        0.026  -0.351   2.768  0.00  0.00    +0.050 S 
BRANCH  11  17
ATOM     12  C   LIG    1       -0.018   1.461   0.010  0.00  0.00    +0.400 C 
ATOM     13  N   LIG    1        0.002  -0.004   0.002  0.00  0.00    -0.370 N 
ATOM     14  N   LIG    1        0.009  -0.852  -1.120  0.00  0.00    -0.090 NA
ATOM     15  N   LIG    1        0.027  -2.061  -0.674  0.00  0.00    -0.030 NA
ATOM     16  N   LIG    1        0.032  -2.063   0.610  0.00  0.00    -0.330 NA
ATOM     17  C   LIG    1        0.024  -0.832   1.073  0.00  0.00    +0.210 A 
ENDBRANCH  11  17
ENDBRANCH  10  11
ENDBRANCH   1  10
TORSDOF 3
ENDMDL
MODEL       20
REMARK  Name = ZINC000004298574
REMARK                            x       y       z     vdW  Elec       q    Type
REMARK                         _______ _______ _______ _____ _____    ______ ____
ROOT
ATOM      1  C   LIG    1       -4.890   0.718   0.029  0.00  0.00    +0.170 C 
ATOM      2  C   LIG    1       -5.190   0.296  -1.423  0.00  0.00    -0.270 C 
ATOM      3  S   LIG    1       -7.016   0.092  -1.422  0.00  0.00    +2.380 S 
ATOM      4  C   LIG    1       -7.306   1.473  -0.244  0.00  0.00    -0.330 C 
ATOM      5  O   LIG    1       -7.362  -1.144  -0.811  0.00  0.00    -0.930 OA
ATOM      6  O   LIG    1       -7.540   0.430  -2.699  0.00  0.00    -0.940 OA
ATOM      7  C   LIG    1       -6.088   1.385   0.694  0.00  0.00    +0.190 C 
ENDROOT
BRANCH   1   8
ATOM      8  N   LIG    1       -3.761   1.658   0.029  0.00  0.00    -0.670 NA
ATOM      9  H   LIG    1       -3.816   2.289   0.814  0.00  0.00    +0.360 HD
BRANCH   8  10
ATOM     10  C   LIG    1       -2.479   0.941   0.019  0.00  0.00    +0.180 C 
BRANCH  10  11
ATOM     11  C   LIG    1       -1.330   1.951   0.019  0.00  0.00    -0.050 C 
BRANCH  11  13
ATOM     12  O   LIG    1        0.002  -0.004   0.002  0.00  0.00    -0.700 OA
ATOM     13  C   LIG    1       -0.015   1.215   0.009  0.00  0.00    +0.490 C 
ATOM     14  O   LIG    1        1.033   1.839   0.002  0.00  0.00    -0.700 OA
ENDBRANCH  11  13
ENDBRANCH  10  11
ENDBRANCH   8  10
ENDBRANCH   1   8
BRANCH   7  15
ATOM     15  O   LIG    1       -5.717   2.705   1.096  0.00  0.00    -0.540 OA
ATOM     16  H   LIG    1       -6.405   3.174   1.588  0.00  0.00    +0.380 HD
ENDBRANCH   7  15
TORSDOF 5
ENDMDL
MODEL       21
REMARK  Name = ZINC000004298573
REMARK                            x       y       z     vdW  Elec       q    Type
REMARK                         _______ _______ _______ _____ _____    ______ ____
ROOT
ATOM      1  C   LIG    1       -4.890   0.718   0.029  0.00  0.00    +0.200 C 
ATOM      2  C   LIG    1       -5.221   0.301   1.486  0.00  0.00    -0.320 C 
ATOM      3  S   LIG    1       -6.925  -0.360   1.289  0.00  0.00    +2.390 S 
ATOM      4  C   LIG    1       -7.432   0.854   0.013  0.00  0.00    -0.340 C 
ATOM      5  O   LIG    1       -7.663  -0.140   2.483  0.00  0.00    -0.940 OA
ATOM      6  O   LIG    1       -6.870  -1.659   0.716  0.00  0.00    -0.930 OA
ATOM      7  C   LIG    1       -6.122   1.393  -0.576  0.00  0.00    +0.210 C 
ENDROOT
BRANCH   1   8
ATOM      8  N   LIG    1       -3.761   1.658   0.029  0.00  0.00    -0.670 NA
ATOM      9  H   LIG    1       -3.816   2.289   0.814  0.00  0.00    +0.340 HD
BRANCH   8  10
ATOM     10  C   LIG    1       -2.479   0.941   0.019  0.00  0.00    +0.200 C 
BRANCH  10  11
ATOM     11  C   LIG    1       -1.330   1.951   0.019  0.00  0.00    -0.050 C 
BRANCH  11  13
ATOM     12  O   LIG    1        0.002  -0.004   0.002  0.00  0.00    -0.700 OA
ATOM     13  C   LIG    1       -0.015   1.215   0.009  0.00  0.00    +0.490 C 
ATOM     14  O   LIG    1        1.033   1.839   0.002  0.00  0.00    -0.700 OA
ENDBRANCH  11  13
ENDBRANCH  10  11
ENDBRANCH   8  10
ENDBRANCH   1   8
BRANCH   7  15
ATOM     15  O   LIG    1       -6.120   1.167  -1.987  0.00  0.00    -0.550 OA
ATOM     16  H   LIG    1       -6.835   1.616  -2.458  0.00  0.00    +0.380 HD
ENDBRANCH   7  15
TORSDOF 5
ENDMDL
MODEL       22
REMARK  Name = ZINC000016958222
REMARK                            x       y       z     vdW  Elec       q    Type
REMARK                         _______ _______ _______ _____ _____    ______ ____
ROOT
ATOM      1  C   LIG    1       -0.018   1.503   0.010  0.00  0.00    +0.130 C 
ATOM      2  C   LIG    1        0.002  -0.004   0.002  0.00  0.00    -0.060 A 
ATOM      3  N   LIG    1        0.005  -0.647  -1.137  0.00  0.00    -0.340 NA
ATOM      4  C   LIG    1        0.023  -1.982  -1.162  0.00  0.00    -0.200 A 
ATOM      5  C   LIG    1        0.039  -2.716   0.029  0.00  0.00    +0.410 A 
ATOM      6  N   LIG    1        0.058  -4.083  -0.032  0.00  0.00    -0.520 N 
ATOM      7  C   LIG    1        0.061  -4.723  -1.213  0.00  0.00    +0.710 A 
ATOM      8  N   LIG    1        0.046  -4.072  -2.388  0.00  0.00    -0.660 N 
ATOM      9  H   LIG    1        0.050  -4.578  -3.215  0.00  0.00    +0.430 HD
ATOM     10  O   LIG    1        0.077  -5.938  -1.220  0.00  0.00    -0.560 OA
ATOM     11  C   LIG    1        0.074  -4.861   1.210  0.00  0.00    +0.330 C 
ATOM     12  N   LIG    1        0.036  -2.064   1.220  0.00  0.00    -0.620 NA
ATOM     13  C   LIG    1        0.028  -2.722  -2.434  0.00  0.00    +0.580 A 
ATOM     14  O   LIG    1        0.015  -2.134  -3.498  0.00  0.00    -0.510 OA
ATOM     15  C   LIG    1        0.023  -0.713   1.227  0.00  0.00    +0.490 A 
ATOM     16  O   LIG    1        0.021  -0.107   2.284  0.00  0.00    -0.570 OA
ENDROOT
TORSDOF 0
ENDMDL
MODEL       23
REMARK  Name = ZINC000004523642
REMARK                            x       y       z     vdW  Elec       q    Type
REMARK                         _______ _______ _______ _____ _____    ______ ____
ROOT
ATOM      1  C   LIG    1        2.196  -0.166  -1.359  0.00  0.00    -0.360 A 
ATOM      2  CA  LIG    1        3.075  -0.865  -0.597  0.00  0.00    +0.170 A 
ATOM      3  N   LIG    1        4.331  -0.346  -0.364  0.00  0.00    -0.640 N 
ATOM      4  H   LIG    1        4.960  -0.846   0.181  0.00  0.00    +0.400 HD
ATOM      5  C   LIG    1        4.701   0.839  -0.877  0.00  0.00    +0.640 A 
ATOM      6  N   LIG    1        3.869   1.571  -1.638  0.00  0.00    -0.700 NA
ATOM      7  O   LIG    1        5.818   1.260  -0.647  0.00  0.00    -0.610 OA
ATOM      8  C   LIG    1        2.626   1.126  -1.915  0.00  0.00    +0.530 A 
ATOM      9  O   LIG    1        1.871   1.786  -2.603  0.00  0.00    -0.610 OA
ENDROOT
BRANCH   2  10
ATOM     10  C   LIG    1        2.688  -2.175  -0.020  0.00  0.00    +0.530 C 
ATOM     11  OXT LIG    1        3.519  -2.855   0.564  0.00  0.00    -0.650 OA
ATOM     12  O   LIG    1        1.539  -2.575  -0.130  0.00  0.00    -0.680 OA
ENDBRANCH   2  10
BRANCH   1  13
ATOM     13  C   LIG    1        0.815  -0.703  -1.634  0.00  0.00    +0.330 C 
BRANCH  13  15
ATOM     14  C   LIG    1       -0.236   1.280  -0.787  0.00  0.00    +0.300 C 
ATOM     15  N   LIG    1       -0.124  -0.177  -0.634  0.00  0.00    -0.370 N 
ATOM     16  C   LIG    1       -1.443  -0.792  -0.829  0.00  0.00    +0.300 C 
ATOM     17  H   LIG    1        0.215  -0.393   0.291  0.00  0.00    +0.420 HD
ENDBRANCH  13  15
ENDBRANCH   1  13
TORSDOF 3
ENDMDL
MODEL       24
REMARK  Name = ZINC000100164566
REMARK                            x       y       z     vdW  Elec       q    Type
REMARK                         _______ _______ _______ _____ _____    ______ ____
ROOT
ATOM      1  C   LIG    1       -0.063  -4.571   2.333  0.00  0.00    -0.430 A 
ATOM      2  C   LIG    1       -0.953  -4.927   3.338  0.00  0.00    +0.510 A 
ATOM      3  N   LIG    1       -0.474  -5.379   4.527  0.00  0.00    -0.650 N 
ATOM      4  H   LIG    1       -1.092  -5.628   5.232  0.00  0.00    +0.420 HD
ATOM      5  C   LIG    1        0.852  -5.481   4.735  0.00  0.00    +0.700 A 
ATOM      6  N   LIG    1        1.733  -5.142   3.777  0.00  0.00    -0.650 N 
ATOM      7  H   LIG    1        2.684  -5.224   3.947  0.00  0.00    +0.420 HD
ATOM      8  O   LIG    1        1.260  -5.887   5.806  0.00  0.00    -0.590 OA
ATOM      9  O   LIG    1       -2.269  -4.828   3.137  0.00  0.00    -0.640 OA
ATOM     10  C   LIG    1        1.301  -4.690   2.569  0.00  0.00    +0.500 A 
ATOM     11  O   LIG    1        2.180  -4.356   1.622  0.00  0.00    -0.650 OA
ENDROOT
BRANCH   1  12
ATOM     12  C   LIG    1       -0.568  -4.068   1.006  0.00  0.00    +0.280 C 
BRANCH  12  17
ATOM     13  C   LIG    1       -0.018   1.465   0.010  0.00  0.00    +0.170 C 
ATOM     14  N   LIG    1        0.002  -0.004   0.002  0.00  0.00    -0.550 NA
ATOM     15  C   LIG    1       -1.360  -0.549  -0.079  0.00  0.00    +0.170 C 
ATOM     16  C   LIG    1       -1.292  -2.075  -0.165  0.00  0.00    +0.160 C 
ATOM     17  N   LIG    1       -0.588  -2.599   1.014  0.00  0.00    -0.530 NA
ATOM     18  C   LIG    1        0.774  -2.054   1.095  0.00  0.00    +0.200 C 
ATOM     19  C   LIG    1        0.706  -0.528   1.181  0.00  0.00    +0.160 C 
ENDBRANCH  12  17
ENDBRANCH   1  12
TORSDOF 2
ENDMDL
MODEL       25
REMARK  Name = ZINC000004784784
REMARK                            x       y       z     vdW  Elec       q    Type
REMARK                         _______ _______ _______ _____ _____    ______ ____
ROOT
ATOM      1  N   LIG    1       -2.671  -2.600  -0.237  0.00  0.00    -0.740 N 
ATOM      2  H   LIG    1       -3.427  -2.012  -0.081  0.00  0.00    +0.400 HD
ATOM      3  C   LIG    1       -2.873  -3.916  -0.445  0.00  0.00    +0.510 C 
ATOM      4  O   LIG    1       -1.928  -4.651  -0.640  0.00  0.00    -0.500 OA
ENDROOT
BRANCH   1   5
ATOM      5  C   LIG    1       -1.311  -2.056  -0.247  0.00  0.00    +0.270 C 
BRANCH   5   6
ATOM      6  C   LIG    1       -1.362  -0.549   0.012  0.00  0.00    +0.160 C 
BRANCH   6   8
ATOM      7  C   LIG    1       -0.018   1.465   0.010  0.00  0.00    +0.200 C 
ATOM      8  N   LIG    1        0.002  -0.004   0.002  0.00  0.00    -0.540 NA
ATOM      9  C   LIG    1        0.786  -0.526   1.129  0.00  0.00    +0.200 C 
ENDBRANCH   6   8
ENDBRANCH   5   6
ENDBRANCH   1   5
BRANCH   3  10
ATOM     10  C   LIG    1       -4.272  -4.475  -0.434  0.00  0.00    +0.180 C 
BRANCH  10  11
ATOM     11  O   LIG    1       -4.224  -5.883  -0.676  0.00  0.00    -0.330 OA
BRANCH  11  12
ATOM     12  C   LIG    1       -5.506  -6.514  -0.687  0.00  0.00    +0.100 C 
BRANCH  12  13
ATOM     13  C   LIG    1       -5.337  -7.989  -0.950  0.00  0.00    +0.500 C 
ATOM     14  O   LIG    1       -6.316  -8.715  -0.999  0.00  0.00    -0.700 OA
ATOM     15  O   LIG    1       -4.223  -8.455  -1.112  0.00  0.00    -0.670 OA
ENDBRANCH  12  13
ENDBRANCH  11  12
ENDBRANCH  10  11
ENDBRANCH   3  10
TORSDOF 7
ENDMDL
MODEL       26
REMARK  Name = ZINC000046799780
REMARK                            x       y       z     vdW  Elec       q    Type
REMARK                         _______ _______ _______ _____ _____    ______ ____
ROOT
ATOM      1  N   LIG    1        0.796  -0.399  -1.397  0.00  0.00    -1.000 NA
ATOM      2  C   LIG    1        0.054  -0.583  -2.652  0.00  0.00    +0.280 C 
ATOM      3  C   LIG    1        0.667   0.326  -3.723  0.00  0.00    +0.040 C 
ATOM      4  C   LIG    1        2.165   0.059  -3.819  0.00  0.00    +0.080 C 
ATOM      5  N   LIG    1        2.415  -1.323  -4.247  0.00  0.00    -0.770 N 
ATOM      6  H   LIG    1        2.155  -2.132  -3.780  0.00  0.00    +0.400 HD
ATOM      7  C   LIG    1        3.078  -1.244  -5.418  0.00  0.00    +0.660 C 
ATOM      8  N   LIG    1        3.288   0.021  -5.801  0.00  0.00    -0.720 NA
ATOM      9  O   LIG    1        3.443  -2.214  -6.054  0.00  0.00    -0.620 OA
ATOM     10  C   LIG    1        2.852   0.338  -2.486  0.00  0.00    +0.040 C 
ATOM     11  C   LIG    1        2.781   0.900  -4.913  0.00  0.00    +0.500 C 
ATOM     12  O   LIG    1        2.812   2.110  -4.980  0.00  0.00    -0.570 OA
ATOM     13  C   LIG    1        2.256  -0.566  -1.407  0.00  0.00    +0.280 C 
ENDROOT
BRANCH   1  15
ATOM     14  C   LIG    1       -0.022   1.810   0.012  0.00  0.00    -0.290 C 
ATOM     15  S   LIG    1        0.002  -0.004   0.002  0.00  0.00    +2.610 S 
ATOM     16  O   LIG    1       -1.309  -0.519  -0.182  0.00  0.00    -0.960 OA
ATOM     17  O   LIG    1        0.845  -0.497   1.035  0.00  0.00    -0.960 OA
ENDBRANCH   1  15
TORSDOF 1
ENDMDL
MODEL       27
REMARK  Name = ZINC000019855238
REMARK                            x       y       z     vdW  Elec       q    Type
REMARK                         _______ _______ _______ _____ _____    ______ ____
ROOT
ATOM      1  C   LIG    1       -0.063  -4.571   2.333  0.00  0.00    -0.430 A 
ATOM      2  C   LIG    1       -0.953  -4.927   3.338  0.00  0.00    +0.510 A 
ATOM      3  N   LIG    1       -0.474  -5.379   4.527  0.00  0.00    -0.650 N 
ATOM      4  H   LIG    1       -1.092  -5.628   5.232  0.00  0.00    +0.420 HD
ATOM      5  C   LIG    1        0.852  -5.481   4.735  0.00  0.00    +0.700 A 
ATOM      6  N   LIG    1        1.733  -5.142   3.777  0.00  0.00    -0.650 N 
ATOM      7  H   LIG    1        2.684  -5.224   3.947  0.00  0.00    +0.420 HD
ATOM      8  O   LIG    1        1.260  -5.887   5.806  0.00  0.00    -0.590 OA
ATOM      9  O   LIG    1       -2.269  -4.828   3.137  0.00  0.00    -0.640 OA
ATOM     10  C   LIG    1        1.301  -4.690   2.569  0.00  0.00    +0.500 A 
ATOM     11  O   LIG    1        2.180  -4.356   1.622  0.00  0.00    -0.650 OA
ENDROOT
BRANCH   1  12
ATOM     12  C   LIG    1       -0.568  -4.068   1.006  0.00  0.00    +0.280 C 
BRANCH  12  17
ATOM     13  C   LIG    1       -0.018   1.465   0.010  0.00  0.00    +0.170 C 
ATOM     14  N   LIG    1        0.002  -0.004   0.002  0.00  0.00    -0.550 NA
ATOM     15  C   LIG    1       -1.360  -0.549  -0.079  0.00  0.00    +0.170 C 
ATOM     16  C   LIG    1       -1.292  -2.075  -0.165  0.00  0.00    +0.160 C 
ATOM     17  N   LIG    1       -0.588  -2.599   1.014  0.00  0.00    -0.530 NA
ATOM     18  C   LIG    1        0.774  -2.054   1.095  0.00  0.00    +0.200 C 
ATOM     19  C   LIG    1        0.706  -0.528   1.181  0.00  0.00    +0.160 C 
ENDBRANCH  12  17
ENDBRANCH   1  12
TORSDOF 2
ENDMDL
MODEL       28
REMARK  Name = ZINC000022865445
REMARK                            x       y       z     vdW  Elec       q    Type
REMARK                         _______ _______ _______ _____ _____    ______ ____
ROOT
ATOM      1  C   LIG    1        0.051  -4.569   2.285  0.00  0.00    +0.170 A 
ATOM      2  C   LIG    1        1.268  -5.155   2.265  0.00  0.00    -0.200 A 
ATOM      3  C   LIG    1        1.829  -5.617   3.480  0.00  0.00    +0.510 A 
ATOM      4  N   LIG    1        1.139  -5.463   4.628  0.00  0.00    -0.700 NA
ATOM      5  C   LIG    1       -0.071  -4.875   4.619  0.00  0.00    +0.640 A 
ATOM      6  O   LIG    1       -0.681  -4.743   5.662  0.00  0.00    -0.620 OA
ATOM      7  O   LIG    1        2.925  -6.149   3.488  0.00  0.00    -0.610 OA
ATOM      8  N   LIG    1       -0.614  -4.427   3.472  0.00  0.00    -0.650 N 
ATOM      9  H   LIG    1       -1.487  -4.006   3.486  0.00  0.00    +0.390 HD
ENDROOT
BRANCH   1  10
ATOM     10  C   LIG    1       -0.568  -4.068   1.006  0.00  0.00    +0.240 C 
BRANCH  10  15
ATOM     11  C   LIG    1       -0.626   1.512   0.128  0.00  0.00    +0.200 C 
ATOM     12  N   LIG    1       -0.490   0.050   0.066  0.00  0.00    -0.550 NA
ATOM     13  C   LIG    1       -1.800  -0.606   0.178  0.00  0.00    +0.180 C 
ATOM     14  C   LIG    1       -1.624  -2.119   0.030  0.00  0.00    +0.180 C 
ATOM     15  N   LIG    1       -0.704  -2.607   1.067  0.00  0.00    -0.540 NA
ATOM     16  C   LIG    1        0.606  -1.950   0.956  0.00  0.00    +0.190 C 
ATOM     17  C   LIG    1        0.430  -0.437   1.104  0.00  0.00    +0.180 C 
ENDBRANCH  10  15
ENDBRANCH   1  10
TORSDOF 2
ENDMDL
MODEL       29
REMARK  Name = ZINC000072242770
REMARK                            x       y       z     vdW  Elec       q    Type
REMARK                         _______ _______ _______ _____ _____    ______ ____
ROOT
ATOM      1  C   LIG    1        0.047  -1.812   5.055  0.00  0.00    -0.300 A 
ATOM      2  C   LIG    1       -1.071  -2.050   5.773  0.00  0.00    +0.320 A 
ATOM      3  N   LIG    1       -1.050  -1.893   7.133  0.00  0.00    -0.660 N 
ATOM      4  H   LIG    1       -1.853  -2.064   7.649  0.00  0.00    +0.390 HD
ATOM      5  C   LIG    1        0.075  -1.503   7.760  0.00  0.00    +0.640 A 
ATOM      6  N   LIG    1        1.203  -1.260   7.068  0.00  0.00    -0.690 NA
ATOM      7  O   LIG    1        0.071  -1.370   8.968  0.00  0.00    -0.610 OA
ATOM      8  C   LIG    1        1.225  -1.409   5.728  0.00  0.00    +0.520 A 
ATOM      9  O   LIG    1        2.246  -1.189   5.102  0.00  0.00    -0.590 OA
ENDROOT
BRANCH   1  10
ATOM     10  C   LIG    1        0.043  -1.979   3.557  0.00  0.00    +0.190 C 
BRANCH  10  11
ATOM     11  S   LIG    1        0.026  -0.351   2.768  0.00  0.00    +0.040 S 
BRANCH  11  17
ATOM     12  C   LIG    1       -0.018   1.461   0.010  0.00  0.00    +0.380 C 
ATOM     13  N   LIG    1        0.002  -0.004   0.002  0.00  0.00    -0.370 N 
ATOM     14  N   LIG    1        0.009  -0.852  -1.120  0.00  0.00    -0.100 NA
ATOM     15  N   LIG    1        0.027  -2.061  -0.674  0.00  0.00    -0.040 NA
ATOM     16  N   LIG    1        0.032  -2.063   0.610  0.00  0.00    -0.340 NA
ATOM     17  C   LIG    1        0.024  -0.832   1.073  0.00  0.00    +0.220 A 
ENDBRANCH  11  17
ENDBRANCH  10  11
ENDBRANCH   1  10
TORSDOF 3
ENDMDL
MODEL       30
REMARK  Name = ZINC000498047884
REMARK                            x       y       z     vdW  Elec       q    Type
REMARK                         _______ _______ _______ _____ _____    ______ ____
ROOT
ATOM      1  C   LIG    1       -2.542  -2.585   0.626  0.00  0.00    +0.330 C 
ATOM      2  O   LIG    1       -3.506  -1.847   0.623  0.00  0.00    -0.420 OA
ENDROOT
BRANCH   1   3
ATOM      3  C   LIG    1       -2.638  -3.869   1.199  0.00  0.00    +0.120 C 
ATOM      4  C   LIG    1       -3.829  -4.317   1.656  0.00  0.00    -0.160 C 
ATOM      5  O   LIG    1       -1.531  -4.658   1.294  0.00  0.00    -0.720 OA
BRANCH   4   6
ATOM      6  O   LIG    1       -4.945  -3.585   1.460  0.00  0.00    -0.470 OA
ATOM      7  H   LIG    1       -5.747  -3.987   1.822  0.00  0.00    +0.360 HD
ENDBRANCH   4   6
BRANCH   4   8
ATOM      8  C   LIG    1       -3.909  -5.634   2.384  0.00  0.00    +0.220 C 
BRANCH   8   9
ATOM      9  O   LIG    1       -4.305  -5.407   3.738  0.00  0.00    -0.580 OA
ATOM     10  H   LIG    1       -4.378  -6.213   4.267  0.00  0.00    +0.360 HD
ENDBRANCH   8   9
ENDBRANCH   4   8
ENDBRANCH   1   3
BRANCH   1  11
ATOM     11  C   LIG    1       -1.241  -2.128   0.016  0.00  0.00    +0.120 C 
ATOM     12  C   LIG    1       -1.152  -2.627  -1.428  0.00  0.00    +0.100 C 
BRANCH  11  13
ATOM     13  C   LIG    1       -1.181  -0.623   0.032  0.00  0.00    +0.430 C 
ATOM     14  O   LIG    1       -2.202   0.023   0.050  0.00  0.00    -0.470 OA
BRANCH  13  16
ATOM     15  C   LIG    1       -0.010   1.453   0.042  0.00  0.00    +0.250 C 
ATOM     16  O   LIG    1        0.008   0.001   0.025  0.00  0.00    -0.350 OA
ENDBRANCH  13  16
ENDBRANCH  11  13
BRANCH  11  17
ATOM     17  O   LIG    1       -0.149  -2.657   0.771  0.00  0.00    -0.490 OA
ATOM     18  H   LIG    1       -0.142  -2.382   1.698  0.00  0.00    +0.370 HD
ENDBRANCH  11  17
ENDBRANCH   1  11
TORSDOF 8
ENDMDL
MODEL       31
REMARK  Name = ZINC000005274097
REMARK                            x       y       z     vdW  Elec       q    Type
REMARK                         _______ _______ _______ _____ _____    ______ ____
ROOT
ATOM      1  C   VAL A  1       -1.413  -2.041   0.005  0.00  0.00    +0.480 C 
ATOM      2  N   THR A  2       -1.212  -2.705  -1.150  0.00  0.00    -0.690 N 
ATOM      3  H   THR A  2       -1.081  -2.214  -1.976  0.00  0.00    +0.390 HD
ATOM      4  O   VAL A  1       -1.577  -2.655   1.037  0.00  0.00    -0.550 OA
ENDROOT
BRANCH   1   5
ATOM      5  CA  VAL A  1       -1.433  -0.534   0.013  0.00  0.00    +0.180 C 
BRANCH   5   7
ATOM      6  CG1 VAL A  1       -0.019   1.526   0.010  0.00  0.00    +0.030 C 
ATOM      7  CB  VAL A  1        0.002  -0.004   0.002  0.00  0.00    -0.010 C 
ATOM      8  CG2 VAL A  1        0.742  -0.511   1.242  0.00  0.00    +0.020 C 
ENDBRANCH   5   7
BRANCH   5   9
ATOM      9  N   VAL A  1       -2.121  -0.060   1.222  0.00  0.00    -0.820 NA
ATOM     10  H1  VAL A  1       -1.651  -0.382   2.054  0.00  0.00    +0.350 HD
ATOM     11  H2  VAL A  1       -3.090  -0.343   1.221  0.00  0.00    +0.350 HD
ENDBRANCH   5   9
ENDBRANCH   1   5
BRANCH   2  12
ATOM     12  CA  THR A  2       -1.192  -4.170  -1.159  0.00  0.00    +0.170 C 
BRANCH  12  13
ATOM     13  C   THR A  2       -2.602  -4.691  -1.272  0.00  0.00    +0.500 C 
ATOM     14  OXT THR A  2       -2.897  -5.763  -0.772  0.00  0.00    -0.680 OA
ATOM     15  O   THR A  2       -3.446  -4.040  -1.863  0.00  0.00    -0.700 OA
ENDBRANCH  12  13
BRANCH  12  16
ATOM     16  CB  THR A  2       -0.369  -4.662  -2.351  0.00  0.00    +0.160 C 
ATOM     17  CG2 THR A  2        1.062  -4.134  -2.236  0.00  0.00    -0.010 C 
BRANCH  16  18
ATOM     18  OG1 THR A  2       -0.350  -6.091  -2.358  0.00  0.00    -0.540 OA
ATOM     19  HG1 THR A  2        0.155  -6.474  -3.089  0.00  0.00    +0.370 HD
ENDBRANCH  16  18
ENDBRANCH  12  16
ENDBRANCH   2  12
TORSDOF 7
ENDMDL
MODEL       32
REMARK  Name = ZINC000002601203
REMARK                            x       y       z     vdW  Elec       q    Type
REMARK                         _______ _______ _______ _____ _____    ______ ____
ROOT
ATOM      1  C   LIG    1       -0.019   1.526   0.010  0.00  0.00    +0.050 C 
ATOM      2  C   LIG    1        0.002  -0.004   0.002  0.00  0.00    +0.240 C 
ATOM      3  N   LIG    1       -1.368  -0.500  -0.009  0.00  0.00    -0.730 N 
ATOM      4  H   LIG    1       -1.855  -0.500  -0.847  0.00  0.00    +0.390 HD
ATOM      5  C   LIG    1       -1.983  -0.954   1.088  0.00  0.00    +0.500 C 
ATOM      6  C   LIG    1       -1.318  -0.996   2.431  0.00  0.00    +0.340 C 
ATOM      7  N   LIG    1        0.132  -0.941   2.305  0.00  0.00    -0.700 N 
ATOM      8  H   LIG    1        0.674  -1.243   3.051  0.00  0.00    +0.400 HD
ATOM      9  O   LIG    1       -1.685  -2.206   3.096  0.00  0.00    -0.780 OA
ATOM     10  O   LIG    1       -3.126  -1.347   0.992  0.00  0.00    -0.520 OA
ATOM     11  C   LIG    1        0.747  -0.491   1.208  0.00  0.00    +0.510 C 
ATOM     12  O   LIG    1        1.960  -0.477   1.186  0.00  0.00    -0.570 OA
ENDROOT
BRANCH   6  13
ATOM     13  C   LIG    1       -1.793   0.197   3.263  0.00  0.00    +0.410 C 
ATOM     14  F   LIG    1       -1.456   1.386   2.609  0.00  0.00    -0.210 F 
ATOM     15  F   LIG    1       -1.177   0.164   4.519  0.00  0.00    -0.190 F 
ATOM     16  F   LIG    1       -3.182   0.130   3.423  0.00  0.00    -0.180 F 
ENDBRANCH   6  13
TORSDOF 1
ENDMDL
MODEL       33
REMARK  Name = ZINC000002262056
REMARK                            x       y       z     vdW  Elec       q    Type
REMARK                         _______ _______ _______ _____ _____    ______ ____
ROOT
ATOM      1  N   SER A  1       -1.175   3.240  -0.667  0.00  0.00    -0.630 NA
ATOM      2  H   SER A  1       -1.817   3.925  -0.299  0.00  0.00    +0.330 HD
ENDROOT
BRANCH   1   3
ATOM      3  C   UNK A  0       -1.343   3.088  -2.119  0.00  0.00    +0.200 C 
ATOM      4  C   UNK A  0       -2.836   3.183  -2.479  0.00  0.00    +0.030 C 
ATOM      5  C   UNK A  0       -2.911   3.349  -4.019  0.00  0.00    -0.320 C 
ATOM      6  S   UNK A  0       -1.567   4.548  -4.357  0.00  0.00    +2.380 S 
ATOM      7  O   UNK A  0       -2.089   5.869  -4.299  0.00  0.00    -0.950 OA
ATOM      8  O   UNK A  0       -0.835   4.125  -5.499  0.00  0.00    -0.940 OA
ATOM      9  C   UNK A  0       -0.589   4.216  -2.849  0.00  0.00    -0.290 C 
ENDBRANCH   1   3
BRANCH   1  10
ATOM     10  CA  SER A  1       -1.330   1.951   0.019  0.00  0.00    +0.060 C 
BRANCH  10  12
ATOM     11  O   SER A  1        0.002  -0.004   0.002  0.00  0.00    -0.720 OA
ATOM     12  C   SER A  1       -0.015   1.215   0.009  0.00  0.00    +0.510 C 
ATOM     13  OXT SER A  1        1.033   1.839   0.002  0.00  0.00    -0.660 OA
ENDBRANCH  10  12
BRANCH  10  14
ATOM     14  CB  SER A  1       -1.768   2.192   1.465  0.00  0.00    +0.170 C 
BRANCH  14  15
ATOM     15  OG  SER A  1       -0.729   2.873   2.170  0.00  0.00    -0.540 OA
ATOM     16  H   SER A  1       -0.938   3.059   3.096  0.00  0.00    +0.360 HD
ENDBRANCH  14  15
ENDBRANCH  10  14
ENDBRANCH   1  10
TORSDOF 5
ENDMDL
MODEL       34
REMARK  Name = ZINC000019606478
REMARK                            x       y       z     vdW  Elec       q    Type
REMARK                         _______ _______ _______ _____ _____    ______ ____
ROOT
ATOM      1  O   LIG    1        0.002  -0.004   0.002  0.00  0.00    -0.620 OA
ATOM      2  C   LIG    1       -0.014   1.212   0.009  0.00  0.00    +0.640 A 
ATOM      3  N   LIG    1       -1.194   1.859   0.029  0.00  0.00    -0.700 NA
ATOM      4  C   LIG    1       -1.230   3.207   0.037  0.00  0.00    +0.520 A 
ATOM      5  C   LIG    1       -0.015   3.934   0.024  0.00  0.00    -0.290 A 
ATOM      6  C   LIG    1        1.154   3.259   0.004  0.00  0.00    +0.270 A 
ATOM      7  O   LIG    1       -2.297   3.794   0.056  0.00  0.00    -0.590 OA
ATOM      8  N   LIG    1        1.147   1.891   0.001  0.00  0.00    -0.670 N 
ATOM      9  H   LIG    1        1.987   1.406  -0.013  0.00  0.00    +0.390 HD
ENDROOT
BRANCH   5  10
ATOM     10  C   LIG    1       -0.027   5.441   0.033  0.00  0.00    +0.250 C 
BRANCH  10  11
ATOM     11  N   LIG    1       -0.171   5.938  -1.342  0.00  0.00    -0.520 NA
ATOM     12  C   LIG    1        0.740   5.233  -2.255  0.00  0.00    +0.140 C 
ATOM     13  C   LIG    1        0.515   5.739  -3.682  0.00  0.00    +0.210 C 
ATOM     14  O   LIG    1        0.704   7.156  -3.716  0.00  0.00    -0.390 OA
ATOM     15  C   LIG    1       -0.168   7.874  -2.839  0.00  0.00    +0.210 C 
ATOM     16  C   LIG    1        0.050   7.390  -1.403  0.00  0.00    +0.140 C 
ENDBRANCH  10  11
ENDBRANCH   5  10
TORSDOF 2
ENDMDL
MODEL       35
REMARK  Name = ZINC000002262057
REMARK                            x       y       z     vdW  Elec       q    Type
REMARK                         _______ _______ _______ _____ _____    ______ ____
ROOT
ATOM      1  N   SER A  1       -1.175   3.240  -0.667  0.00  0.00    -0.630 NA
ATOM      2  H   SER A  1       -1.817   3.925  -0.299  0.00  0.00    +0.330 HD
ENDROOT
BRANCH   1   3
ATOM      3  C   UNK A  0       -1.343   3.088  -2.119  0.00  0.00    +0.160 C 
ATOM      4  C   UNK A  0        0.001   2.717  -2.769  0.00  0.00    +0.100 C 
ATOM      5  C   UNK A  0       -0.122   2.897  -4.295  0.00  0.00    -0.310 C 
ATOM      6  S   UNK A  0       -1.390   4.196  -4.521  0.00  0.00    +2.390 S 
ATOM      7  O   UNK A  0       -2.518   3.643  -5.185  0.00  0.00    -0.950 OA
ATOM      8  O   UNK A  0       -0.775   5.372  -5.030  0.00  0.00    -0.950 OA
ATOM      9  C   UNK A  0       -1.784   4.435  -2.746  0.00  0.00    -0.310 C 
ENDBRANCH   1   3
BRANCH   1  10
ATOM     10  CA  SER A  1       -1.330   1.951   0.019  0.00  0.00    +0.060 C 
BRANCH  10  12
ATOM     11  O   SER A  1        0.002  -0.004   0.002  0.00  0.00    -0.720 OA
ATOM     12  C   SER A  1       -0.015   1.215   0.009  0.00  0.00    +0.510 C 
ATOM     13  OXT SER A  1        1.033   1.839   0.002  0.00  0.00    -0.660 OA
ENDBRANCH  10  12
BRANCH  10  14
ATOM     14  CB  SER A  1       -1.768   2.192   1.465  0.00  0.00    +0.170 C 
BRANCH  14  15
ATOM     15  OG  SER A  1       -0.729   2.873   2.170  0.00  0.00    -0.540 OA
ATOM     16  H   SER A  1       -0.938   3.059   3.096  0.00  0.00    +0.360 HD
ENDBRANCH  14  15
ENDBRANCH  10  14
ENDBRANCH   1  10
TORSDOF 5
ENDMDL
MODEL       36
REMARK  Name = ZINC000040457308
REMARK                            x       y       z     vdW  Elec       q    Type
REMARK                         _______ _______ _______ _____ _____    ______ ____
ROOT
ATOM      1  C   LIG    1       -2.241  -0.182  -1.019  0.00  0.00    +0.360 A 
ATOM      2  N   LIG    1       -1.825   0.588  -2.017  0.00  0.00    -0.310 NA
ATOM      3  N   LIG    1       -2.633   0.894  -2.975  0.00  0.00    -0.230 NA
ATOM      4  C   LIG    1       -3.881   0.439  -2.963  0.00  0.00    +0.280 A 
ATOM      5  N   LIG    1       -4.296  -0.332  -1.965  0.00  0.00    -0.220 NA
ATOM      6  N   LIG    1       -3.487  -0.642  -1.009  0.00  0.00    -0.250 NA
ENDROOT
BRANCH   4   7
ATOM      7  N   LIG    1       -4.750   0.768  -3.994  0.00  0.00    -0.690 N 
ATOM      8  H   LIG    1       -4.446   1.331  -4.724  0.00  0.00    +0.400 HD
BRANCH   7   9
ATOM      9  C   LIG    1       -6.126   0.266  -3.981  0.00  0.00    +0.420 C 
ATOM     10  C   LIG    1       -7.059   1.321  -4.578  0.00  0.00    +0.010 C 
BRANCH   9  11
ATOM     11  O   LIG    1       -6.203  -0.932  -4.756  0.00  0.00    -0.590 OA
ATOM     12  H   LIG    1       -7.088  -1.321  -4.791  0.00  0.00    +0.380 HD
ENDBRANCH   9  11
ENDBRANCH   7   9
ENDBRANCH   4   7
BRANCH   1  13
ATOM     13  N   LIG    1       -1.372  -0.511   0.012  0.00  0.00    -0.650 NA
BRANCH  13  15
ATOM     14  C   LIG    1       -0.019   1.526   0.010  0.00  0.00    -0.030 C 
ATOM     15  C   LIG    1        0.002  -0.004   0.002  0.00  0.00    +0.310 C 
BRANCH  15  16
ATOM     16  O   LIG    1        0.693  -0.477   1.160  0.00  0.00    -0.560 OA
ATOM     17  H   LIG    1        1.611  -0.180   1.219  0.00  0.00    +0.360 HD
ENDBRANCH  15  16
ENDBRANCH  13  15
ENDBRANCH   1  13
TORSDOF 6
ENDMDL
MODEL       37
REMARK  Name = ZINC000004556684
REMARK                            x       y       z     vdW  Elec       q    Type
REMARK                         _______ _______ _______ _____ _____    ______ ____
ROOT
ATOM      1  C   LEU A  1       -2.814  -2.572  -0.234  0.00  0.00    +0.480 C 
ATOM      2  N   SER A  2       -3.318  -2.602  -1.484  0.00  0.00    -0.690 N 
ATOM      3  H   SER A  2       -2.781  -2.294  -2.230  0.00  0.00    +0.390 HD
ATOM      4  O   LEU A  1       -3.485  -2.958   0.700  0.00  0.00    -0.560 OA
ENDROOT
BRANCH   1   5
ATOM      5  CA  LEU A  1       -1.417  -2.058   0.003  0.00  0.00    +0.170 C 
BRANCH   5   6
ATOM      6  N   LEU A  1       -0.927  -2.550   1.297  0.00  0.00    -0.820 NA
ATOM      7  H1  LEU A  1       -0.847  -3.556   1.294  0.00  0.00    +0.350 HD
ATOM      8  H2  LEU A  1       -1.520  -2.237   2.051  0.00  0.00    +0.340 HD
ENDBRANCH   5   6
BRANCH   5   9
ATOM      9  CB  LEU A  1       -1.432  -0.528   0.012  0.00  0.00    +0.040 C 
BRANCH   9  11
ATOM     10  CD1 LEU A  1        0.799  -0.377  -1.102  0.00  0.00    +0.010 C 
ATOM     11  CG  LEU A  1       -0.000  -0.005   0.148  0.00  0.00    +0.000 C 
ATOM     12  CD2 LEU A  1       -0.026   1.517   0.303  0.00  0.00    +0.000 C 
ENDBRANCH   9  11
ENDBRANCH   5   9
ENDBRANCH   1   5
BRANCH   2  13
ATOM     13  CA  SER A  2       -4.675  -3.102  -1.714  0.00  0.00    +0.160 C 
BRANCH  13  14
ATOM     14  C   SER A  2       -4.643  -4.603  -1.845  0.00  0.00    +0.500 C 
ATOM     15  OXT SER A  2       -5.675  -5.221  -2.042  0.00  0.00    -0.700 OA
ATOM     16  O   SER A  2       -3.583  -5.200  -1.755  0.00  0.00    -0.680 OA
ENDBRANCH  13  14
BRANCH  13  17
ATOM     17  CB  SER A  2       -5.233  -2.490  -3.000  0.00  0.00    +0.190 C 
BRANCH  17  18
ATOM     18  OG  SER A  2       -4.467  -2.947  -4.117  0.00  0.00    -0.560 OA
ATOM     19  H   SER A  2       -4.765  -2.598  -4.968  0.00  0.00    +0.370 HD
ENDBRANCH  17  18
ENDBRANCH  13  17
ENDBRANCH   2  13
TORSDOF 8
ENDMDL
MODEL       38
REMARK  Name = ZINC000002561063
REMARK                            x       y       z     vdW  Elec       q    Type
REMARK                         _______ _______ _______ _____ _____    ______ ____
ROOT
ATOM      1  C   LEU A  1       -2.819  -2.590   0.013  0.00  0.00    +0.510 C 
ATOM      2  N   SER A  2       -3.370  -2.737   1.234  0.00  0.00    -0.690 N 
ATOM      3  H   SER A  2       -2.864  -2.501   2.026  0.00  0.00    +0.400 HD
ATOM      4  O   LEU A  1       -3.453  -2.886  -0.979  0.00  0.00    -0.540 OA
ENDROOT
BRANCH   1   5
ATOM      5  CA  LEU A  1       -1.416  -2.058  -0.121  0.00  0.00    +0.180 C 
BRANCH   5   6
ATOM      6  N   LEU A  1       -0.875  -2.427  -1.436  0.00  0.00    -0.820 NA
ATOM      7  H1  LEU A  1        0.087  -2.138  -1.526  0.00  0.00    +0.340 HD
ATOM      8  H2  LEU A  1       -1.439  -2.044  -2.180  0.00  0.00    +0.350 HD
ENDBRANCH   5   6
BRANCH   5   9
ATOM      9  CB  LEU A  1       -1.433  -0.534   0.013  0.00  0.00    +0.000 C 
BRANCH   9  11
ATOM     10  CD1 LEU A  1       -0.019   1.526   0.010  0.00  0.00    +0.000 C 
ATOM     11  CG  LEU A  1        0.002  -0.004   0.002  0.00  0.00    -0.030 C 
ATOM     12  CD2 LEU A  1        0.742  -0.511   1.242  0.00  0.00    +0.020 C 
ENDBRANCH   9  11
ENDBRANCH   5   9
ENDBRANCH   1   5
BRANCH   2  13
ATOM     13  CA  SER A  2       -4.735  -3.255   1.364  0.00  0.00    +0.160 C 
BRANCH  13  14
ATOM     14  C   SER A  2       -4.704  -4.762   1.355  0.00  0.00    +0.500 C 
ATOM     15  OXT SER A  2       -5.652  -5.388   0.913  0.00  0.00    -0.700 OA
ATOM     16  O   SER A  2       -3.730  -5.354   1.788  0.00  0.00    -0.680 OA
ENDBRANCH  13  14
BRANCH  13  17
ATOM     17  CB  SER A  2       -5.343  -2.765   2.679  0.00  0.00    +0.190 C 
BRANCH  17  18
ATOM     18  OG  SER A  2       -4.619  -3.327   3.776  0.00  0.00    -0.550 OA
ATOM     19  H   SER A  2       -4.951  -3.059   4.644  0.00  0.00    +0.360 HD
ENDBRANCH  17  18
ENDBRANCH  13  17
ENDBRANCH   2  13
TORSDOF 8
ENDMDL
MODEL       39
REMARK  Name = ZINC000032179021
REMARK                            x       y       z     vdW  Elec       q    Type
REMARK                         _______ _______ _______ _____ _____    ______ ____
ROOT
ATOM      1  C   LIG    1       -0.027   5.441   0.033  0.00  0.00    +0.220 C 
ATOM      2  C   LIG    1       -0.697   5.981  -1.250  0.00  0.00    -0.000 C 
ATOM      3  C   LIG    1       -1.482   7.222  -0.769  0.00  0.00    +0.150 C 
ATOM      4  C   LIG    1       -1.193   7.285   0.747  0.00  0.00    +0.170 C 
ATOM      5  O   LIG    1       -0.848   5.931   1.116  0.00  0.00    -0.330 OA
ENDROOT
BRANCH   1  10
ATOM      6  O   LIG    1        0.002  -0.004   0.002  0.00  0.00    -0.620 OA
ATOM      7  C   LIG    1       -0.014   1.212   0.009  0.00  0.00    +0.640 A 
ATOM      8  N   LIG    1       -1.194   1.859   0.029  0.00  0.00    -0.700 NA
ATOM      9  C   LIG    1       -1.230   3.207   0.037  0.00  0.00    +0.530 A 
ATOM     10  C   LIG    1       -0.015   3.934   0.024  0.00  0.00    -0.300 A 
ATOM     11  C   LIG    1        1.154   3.259   0.004  0.00  0.00    +0.290 A 
ATOM     12  O   LIG    1       -2.297   3.794   0.056  0.00  0.00    -0.590 OA
ATOM     13  N   LIG    1        1.147   1.891   0.001  0.00  0.00    -0.670 N 
ATOM     14  H   LIG    1        1.987   1.406  -0.013  0.00  0.00    +0.390 HD
ENDBRANCH   1  10
BRANCH   3  15
ATOM     15  O   LIG    1       -1.004   8.400  -1.421  0.00  0.00    -0.570 OA
ATOM     16  H   LIG    1       -1.107   8.387  -2.383  0.00  0.00    +0.380 HD
ENDBRANCH   3  15
BRANCH   4  17
ATOM     17  C   LIG    1       -2.438   7.746   1.508  0.00  0.00    +0.210 C 
BRANCH  17  18
ATOM     18  O   LIG    1       -2.118   7.909   2.891  0.00  0.00    -0.570 OA
ATOM     19  H   LIG    1       -2.862   8.200   3.435  0.00  0.00    +0.380 HD
ENDBRANCH  17  18
ENDBRANCH   4  17
TORSDOF 4
ENDMDL
MODEL       40
REMARK  Name = ZINC000004762706
REMARK                            x       y       z     vdW  Elec       q    Type
REMARK                         _______ _______ _______ _____ _____    ______ ____
ROOT
ATOM      1  C   UNK A  1        0.657  -2.014   1.298  0.00  0.00    +0.520 C 
ATOM      2  N   GLY A  2       -0.460  -2.609   1.763  0.00  0.00    -0.710 N 
ATOM      3  H   GLY A  2       -1.208  -2.069   2.061  0.00  0.00    +0.410 HD
ATOM      4  O   UNK A  1        1.593  -2.689   0.925  0.00  0.00    -0.530 OA
ENDROOT
BRANCH   1   5
ATOM      5  C   UNK A  1        0.742  -0.511   1.242  0.00  0.00    +0.180 C 
BRANCH   5   6
ATOM      6  N   UNK A  1        2.151  -0.103   1.171  0.00  0.00    -0.830 NA
ATOM      7  H   UNK A  1        2.239   0.902   1.198  0.00  0.00    +0.350 HD
ATOM      8  H   UNK A  1        2.598  -0.483   0.350  0.00  0.00    +0.350 HD
ENDBRANCH   5   6
BRANCH   5  10
ATOM      9  C   UNK A  1       -0.019   1.526   0.010  0.00  0.00    +0.020 C 
ATOM     10  C   UNK A  1        0.002  -0.004   0.002  0.00  0.00    -0.010 C 
ENDBRANCH   5  10
ENDBRANCH   1   5
BRANCH   2  11
ATOM     11  CA  GLY A  2       -0.543  -4.071   1.817  0.00  0.00    +0.300 C 
BRANCH  11  12
ATOM     12  C   GLY A  2       -1.884  -4.477   2.371  0.00  0.00    +0.500 C 
ATOM     13  N   GLY A  3       -2.187  -5.783   2.513  0.00  0.00    -0.690 N 
ATOM     14  H   GLY A  3       -1.541  -6.461   2.259  0.00  0.00    +0.410 HD
ATOM     15  O   GLY A  2       -2.691  -3.630   2.689  0.00  0.00    -0.560 OA
BRANCH  13  16
ATOM     16  CA  GLY A  3       -3.490  -6.178   3.052  0.00  0.00    +0.190 C 
BRANCH  16  17
ATOM     17  C   GLY A  3       -3.576  -7.682   3.108  0.00  0.00    +0.490 C 
ATOM     18  OXT GLY A  3       -4.586  -8.220   3.529  0.00  0.00    -0.690 OA
ATOM     19  O   GLY A  3       -2.635  -8.360   2.733  0.00  0.00    -0.690 OA
ENDBRANCH  16  17
ENDBRANCH  13  16
ENDBRANCH  11  12
ENDBRANCH   2  11
TORSDOF 7
ENDMDL
MODEL       41
REMARK  Name = ZINC000013545782
REMARK                            x       y       z     vdW  Elec       q    Type
REMARK                         _______ _______ _______ _____ _____    ______ ____
ROOT
ATOM      1  C   LIG    1       -2.053  -3.133   0.005  0.00  0.00    +0.250 A 
ATOM      2  N   LIG    1       -3.296  -2.725   0.013  0.00  0.00    -0.310 NA
ATOM      3  N   LIG    1       -4.336  -3.662   0.018  0.00  0.00    -0.370 NA
ATOM      4  C   LIG    1       -4.078  -4.982   0.013  0.00  0.00    +0.440 A 
ATOM      5  N   LIG    1       -2.814  -5.444   0.004  0.00  0.00    -0.620 N 
ATOM      6  H   LIG    1       -2.647  -6.399   0.001  0.00  0.00    +0.420 HD
ATOM      7  S   LIG    1       -5.380  -6.094   0.019  0.00  0.00    -0.750 S 
ATOM      8  C   LIG    1       -1.778  -4.579  -0.006  0.00  0.00    +0.510 A 
ATOM      9  O   LIG    1       -0.633  -4.989  -0.014  0.00  0.00    -0.540 OA
ENDROOT
BRANCH   1  10
ATOM     10  N   LIG    1       -1.005  -2.212  -0.000  0.00  0.00    -0.700 N 
ATOM     11  H   LIG    1       -0.087  -2.523  -0.011  0.00  0.00    +0.420 HD
BRANCH  10  12
ATOM     12  C   LIG    1       -1.293  -0.775   0.010  0.00  0.00    +0.300 C 
BRANCH  12  16
ATOM     13  N   LIG    1       -0.016   1.344   0.009  0.00  0.00    -0.850 N 
ATOM     14  H   LIG    1       -0.863   1.817   0.016  0.00  0.00    +0.400 HD
ATOM     15  H   LIG    1        0.817   1.840   0.004  0.00  0.00    +0.400 HD
ATOM     16  C   LIG    1        0.002  -0.004   0.002  0.00  0.00    +0.510 C 
ATOM     17  O   LIG    1        1.060  -0.596  -0.011  0.00  0.00    -0.540 OA
ENDBRANCH  12  16
ENDBRANCH  10  12
ENDBRANCH   1  10
TORSDOF 3
ENDMDL
MODEL       42
REMARK  Name = ZINC000001576275
REMARK                            x       y       z     vdW  Elec       q    Type
REMARK                         _______ _______ _______ _____ _____    ______ ____
ROOT
ATOM      1  C   UNK A  1        0.870  -2.011   1.172  0.00  0.00    +0.480 C 
ATOM      2  N   GLY A  2        1.831  -2.571   0.411  0.00  0.00    -0.710 N 
ATOM      3  H   GLY A  2        2.440  -2.008  -0.092  0.00  0.00    +0.410 HD
ATOM      4  O   UNK A  1        0.108  -2.714   1.801  0.00  0.00    -0.550 OA
ENDROOT
BRANCH   1   5
ATOM      5  C   UNK A  1        0.742  -0.511   1.242  0.00  0.00    +0.180 C 
BRANCH   5   6
ATOM      6  N   UNK A  1       -0.010  -0.139   2.447  0.00  0.00    -0.820 NA
ATOM      7  H   UNK A  1        0.490  -0.406   3.282  0.00  0.00    +0.350 HD
ATOM      8  H   UNK A  1       -0.935  -0.542   2.435  0.00  0.00    +0.350 HD
ENDBRANCH   5   6
BRANCH   5  10
ATOM      9  C   UNK A  1       -0.019   1.526   0.010  0.00  0.00    +0.030 C 
ATOM     10  C   UNK A  1        0.002  -0.004   0.002  0.00  0.00    +0.030 C 
ENDBRANCH   5  10
ENDBRANCH   1   5
BRANCH   2  11
ATOM     11  CA  GLY A  2        1.955  -4.029   0.343  0.00  0.00    +0.300 C 
BRANCH  11  12
ATOM     12  C   GLY A  2        3.098  -4.394  -0.569  0.00  0.00    +0.500 C 
ATOM     13  N   GLY A  3        3.401  -5.689  -0.784  0.00  0.00    -0.690 N 
ATOM     14  H   GLY A  3        2.884  -6.387  -0.352  0.00  0.00    +0.410 HD
ATOM     15  O   GLY A  2        3.745  -3.522  -1.109  0.00  0.00    -0.560 OA
BRANCH  13  16
ATOM     16  CA  GLY A  3        4.513  -6.044  -1.671  0.00  0.00    +0.190 C 
BRANCH  16  17
ATOM     17  C   GLY A  3        4.641  -7.544  -1.740  0.00  0.00    +0.490 C 
ATOM     18  OXT GLY A  3        5.510  -8.050  -2.429  0.00  0.00    -0.690 OA
ATOM     19  O   GLY A  3        3.875  -8.251  -1.108  0.00  0.00    -0.690 OA
ENDBRANCH  16  17
ENDBRANCH  13  16
ENDBRANCH  11  12
ENDBRANCH   2  11
TORSDOF 7
ENDMDL
MODEL       43
REMARK  Name = ZINC000001397125
REMARK                            x       y       z     vdW  Elec       q    Type
REMARK                         _______ _______ _______ _____ _____    ______ ____
ROOT
ATOM      1  C   LIG    1       -0.182  -4.856  -0.449  0.00  0.00    -0.230 A 
ATOM      2  C   LIG    1       -0.088  -6.217  -0.317  0.00  0.00    +0.380 A 
ATOM      3  N   LIG    1       -0.636  -7.020  -1.266  0.00  0.00    -0.370 N 
ATOM      4  C   LIG    1       -1.269  -6.511  -2.335  0.00  0.00    +0.690 A 
ATOM      5  N   LIG    1       -1.395  -5.185  -2.523  0.00  0.00    -0.660 N 
ATOM      6  H   LIG    1       -1.859  -4.851  -3.307  0.00  0.00    +0.430 HD
ATOM      7  O   LIG    1       -1.742  -7.271  -3.157  0.00  0.00    -0.560 OA
ATOM      8  C   LIG    1       -0.885  -4.318  -1.624  0.00  0.00    +0.550 A 
ATOM      9  O   LIG    1       -0.995  -3.117  -1.786  0.00  0.00    -0.450 OA
ENDROOT
BRANCH   3  10
ATOM     10  N   LIG    1       -0.540  -8.375  -1.130  0.00  0.00    -0.590 N 
ATOM     11  H   LIG    1        0.423  -8.662  -1.039  0.00  0.00    +0.360 HD
ATOM     12  H   LIG    1       -0.986  -8.849  -1.902  0.00  0.00    +0.380 HD
ENDBRANCH   3  10
BRANCH   1  13
ATOM     13  C   LIG    1        0.400  -3.956   0.563  0.00  0.00    +0.550 C 
ATOM     14  O   LIG    1        0.978  -4.419   1.530  0.00  0.00    -0.560 OA
BRANCH  13  16
ATOM     15  C   LIG    1        0.812  -1.819   1.323  0.00  0.00    +0.570 C 
ATOM     16  N   LIG    1        0.292  -2.623   0.419  0.00  0.00    -0.720 NA
ATOM     17  O   LIG    1        1.451  -2.330   2.391  0.00  0.00    -0.650 OA
BRANCH  15  18
ATOM     18  O   LIG    1        0.704  -0.485   1.178  0.00  0.00    -0.350 OA
BRANCH  18  20
ATOM     19  C   LIG    1       -0.019   1.526   0.010  0.00  0.00    +0.040 C 
ATOM     20  C   LIG    1        0.002  -0.004   0.002  0.00  0.00    +0.200 C 
ENDBRANCH  18  20
ENDBRANCH  15  18
ENDBRANCH  13  16
ENDBRANCH   1  13
TORSDOF 5
ENDMDL
MODEL       44
REMARK  Name = ZINC000001397125
REMARK                            x       y       z     vdW  Elec       q    Type
REMARK                         _______ _______ _______ _____ _____    ______ ____
ROOT
ATOM      1  C   LIG    1        2.258  -4.226   3.704  0.00  0.00    -0.220 A 
ATOM      2  C   LIG    1        2.385  -5.592   3.869  0.00  0.00    +0.370 A 
ATOM      3  N   LIG    1        3.037  -6.072   4.960  0.00  0.00    -0.370 N 
ATOM      4  C   LIG    1        3.561  -5.250   5.882  0.00  0.00    +0.690 A 
ATOM      5  N   LIG    1        3.473  -3.912   5.780  0.00  0.00    -0.660 N 
ATOM      6  H   LIG    1        3.864  -3.350   6.467  0.00  0.00    +0.430 HD
ATOM      7  O   LIG    1        4.136  -5.730   6.839  0.00  0.00    -0.570 OA
ATOM      8  C   LIG    1        2.847  -3.346   4.727  0.00  0.00    +0.540 A 
ATOM      9  O   LIG    1        2.763  -2.136   4.630  0.00  0.00    -0.440 OA
ENDROOT
BRANCH   1  12
ATOM     10  C   LIG    1        0.812  -1.819   1.323  0.00  0.00    +0.600 C 
ATOM     11  N   LIG    1        1.452  -2.331   2.393  0.00  0.00    -0.710 NA
ATOM     12  C   LIG    1        1.560  -3.667   2.537  0.00  0.00    +0.540 C 
ATOM     13  O   LIG    1        1.080  -4.410   1.703  0.00  0.00    -0.590 OA
ATOM     14  O   LIG    1        0.333  -2.561   0.489  0.00  0.00    -0.620 OA
BRANCH  10  15
ATOM     15  O   LIG    1        0.704  -0.485   1.178  0.00  0.00    -0.360 OA
BRANCH  15  17
ATOM     16  C   LIG    1       -0.019   1.526   0.010  0.00  0.00    +0.040 C 
ATOM     17  C   LIG    1        0.002  -0.004   0.002  0.00  0.00    +0.180 C 
ENDBRANCH  15  17
ENDBRANCH  10  15
ENDBRANCH   1  12
BRANCH   3  18
ATOM     18  N   LIG    1        3.162  -7.422   5.122  0.00  0.00    -0.590 N 
ATOM     19  H   LIG    1        2.259  -7.873   5.111  0.00  0.00    +0.360 HD
ATOM     20  H   LIG    1        3.665  -7.640   5.969  0.00  0.00    +0.380 HD
ENDBRANCH   3  18
TORSDOF 4
ENDMDL
MODEL       45
REMARK  Name = ZINC000001708209
REMARK                            x       y       z     vdW  Elec       q    Type
REMARK                         _______ _______ _______ _____ _____    ______ ____
ROOT
ATOM      1  C   LEU A  1       -3.373  -1.005  -1.681  0.00  0.00    +0.520 C 
ATOM      2  N   GLY A  2       -3.420  -2.319  -1.980  0.00  0.00    -0.720 N 
ATOM      3  H   GLY A  2       -2.603  -2.841  -2.001  0.00  0.00    +0.410 HD
ATOM      4  O   LEU A  1       -4.394  -0.352  -1.655  0.00  0.00    -0.530 OA
ENDROOT
BRANCH   1   5
ATOM      5  CA  LEU A  1       -2.050  -0.348  -1.381  0.00  0.00    +0.190 C 
BRANCH   5   6
ATOM      6  N   LEU A  1       -2.174   1.105  -1.559  0.00  0.00    -0.830 NA
ATOM      7  H1  LEU A  1       -1.270   1.551  -1.523  0.00  0.00    +0.350 HD
ATOM      8  H2  LEU A  1       -2.801   1.501  -0.876  0.00  0.00    +0.350 HD
ENDBRANCH   5   6
BRANCH   5   9
ATOM      9  CB  LEU A  1       -1.647  -0.652   0.064  0.00  0.00    +0.000 C 
BRANCH   9  11
ATOM     10  CD1 LEU A  1        0.099  -0.271   1.810  0.00  0.00    +0.020 C 
ATOM     11  CG  LEU A  1       -0.246  -0.097   0.329  0.00  0.00    -0.030 C 
ATOM     12  CD2 LEU A  1        0.773  -0.855  -0.524  0.00  0.00    +0.030 C 
ENDBRANCH   9  11
ENDBRANCH   5   9
ENDBRANCH   1   5
BRANCH   2  13
ATOM     13  CA  GLY A  2       -4.706  -2.958  -2.272  0.00  0.00    +0.300 C 
BRANCH  13  14
ATOM     14  C   GLY A  2       -4.485  -4.418  -2.572  0.00  0.00    +0.500 C 
ATOM     15  N   GLY A  3       -5.533  -5.211  -2.871  0.00  0.00    -0.690 N 
ATOM     16  H   GLY A  3       -6.429  -4.841  -2.893  0.00  0.00    +0.410 HD
ATOM     17  O   GLY A  2       -3.364  -4.879  -2.544  0.00  0.00    -0.560 OA
BRANCH  15  18
ATOM     18  CA  GLY A  3       -5.318  -6.630  -3.162  0.00  0.00    +0.190 C 
BRANCH  18  19
ATOM     19  C   GLY A  3       -6.640  -7.287  -3.463  0.00  0.00    +0.490 C 
ATOM     20  OXT GLY A  3       -6.683  -8.475  -3.733  0.00  0.00    -0.690 OA
ATOM     21  O   GLY A  3       -7.667  -6.630  -3.437  0.00  0.00    -0.690 OA
ENDBRANCH  18  19
ENDBRANCH  15  18
ENDBRANCH  13  14
ENDBRANCH   2  13
TORSDOF 8
ENDMDL
MODEL       46
REMARK  Name = ZINC000088346543
REMARK                            x       y       z     vdW  Elec       q    Type
REMARK                         _______ _______ _______ _____ _____    ______ ____
ROOT
ATOM      1  O   LIG    1        0.002  -0.004   0.002  0.00  0.00    -0.580 OA
ATOM      2  C   LIG    1       -0.014   1.212   0.009  0.00  0.00    +0.610 C 
ATOM      3  N   LIG    1        1.143   1.901   0.001  0.00  0.00    -0.730 N 
ATOM      4  H   LIG    1        1.130   2.871   0.007  0.00  0.00    +0.410 HD
ENDROOT
BRANCH   2   5
ATOM      5  C   LIG    1       -1.302   1.932   0.019  0.00  0.00    -0.190 A 
ATOM      6  C   LIG    1       -2.540   1.355   0.027  0.00  0.00    +0.140 A 
ATOM      7  N   LIG    1       -3.439   2.359   0.035  0.00  0.00    -0.420 NA
ATOM      8  N   LIG    1       -2.710   3.556   0.031  0.00  0.00    -0.190 NA
ATOM      9  N   LIG    1       -1.455   3.267   0.027  0.00  0.00    -0.300 NA
ENDBRANCH   2   5
BRANCH   3  10
ATOM     10  C   LIG    1        2.422   1.186  -0.015  0.00  0.00    +0.280 C 
BRANCH  10  11
ATOM     11  C   LIG    1        3.571   2.196  -0.020  0.00  0.00    +0.120 C 
ATOM     12  C   LIG    1        4.908   1.450  -0.040  0.00  0.00    +0.210 C 
ATOM     13  O   LIG    1        5.973   2.398  -0.158  0.00  0.00    -0.380 OA
ATOM     14  C   LIG    1        5.879   3.223  -1.323  0.00  0.00    +0.180 C 
ATOM     15  C   LIG    1        4.542   3.970  -1.303  0.00  0.00    +0.190 C 
ATOM     16  O   LIG    1        3.476   3.023  -1.184  0.00  0.00    -0.370 OA
ENDBRANCH  10  11
ENDBRANCH   3  10
TORSDOF 3
ENDMDL
MODEL       47
REMARK  Name = ZINC000088346543
REMARK                            x       y       z     vdW  Elec       q    Type
REMARK                         _______ _______ _______ _____ _____    ______ ____
ROOT
ATOM      1  O   LIG    1        0.002  -0.004   0.002  0.00  0.00    -0.570 OA
ATOM      2  C   LIG    1       -0.014   1.212   0.009  0.00  0.00    +0.620 C 
ATOM      3  N   LIG    1        1.143   1.902   0.001  0.00  0.00    -0.720 N 
ATOM      4  H   LIG    1        1.130   2.872   0.007  0.00  0.00    +0.410 HD
ENDROOT
BRANCH   2   5
ATOM      5  C   LIG    1       -1.299   1.931   0.019  0.00  0.00    -0.180 A 
ATOM      6  C   LIG    1       -2.555   1.383   0.027  0.00  0.00    +0.100 A 
ATOM      7  N   LIG    1       -3.411   2.404   0.035  0.00  0.00    -0.390 NA
ATOM      8  N   LIG    1       -2.757   3.510   0.032  0.00  0.00    -0.160 NA
ATOM      9  N   LIG    1       -1.489   3.288   0.028  0.00  0.00    -0.340 NA
ENDBRANCH   2   5
BRANCH   3  10
ATOM     10  C   LIG    1        2.422   1.187  -0.015  0.00  0.00    +0.280 C 
BRANCH  10  11
ATOM     11  C   LIG    1        3.571   2.196  -0.020  0.00  0.00    +0.120 C 
ATOM     12  C   LIG    1        4.908   1.450  -0.040  0.00  0.00    +0.210 C 
ATOM     13  O   LIG    1        5.973   2.398  -0.158  0.00  0.00    -0.380 OA
ATOM     14  C   LIG    1        5.879   3.224  -1.323  0.00  0.00    +0.180 C 
ATOM     15  C   LIG    1        4.542   3.970  -1.303  0.00  0.00    +0.190 C 
ATOM     16  O   LIG    1        3.476   3.023  -1.184  0.00  0.00    -0.370 OA
ENDBRANCH  10  11
ENDBRANCH   3  10
TORSDOF 3
ENDMDL
MODEL       48
REMARK  Name = ZINC000088346543
REMARK                            x       y       z     vdW  Elec       q    Type
REMARK                         _______ _______ _______ _____ _____    ______ ____
ROOT
ATOM      1  O   LIG    1        0.002  -0.004   0.002  0.00  0.00    -0.570 OA
ATOM      2  C   LIG    1       -0.014   1.211   0.009  0.00  0.00    +0.620 C 
ATOM      3  N   LIG    1        1.143   1.901   0.001  0.00  0.00    -0.720 N 
ATOM      4  H   LIG    1        1.130   2.871   0.007  0.00  0.00    +0.410 HD
ENDROOT
BRANCH   2   5
ATOM      5  C   LIG    1       -1.304   1.933   0.019  0.00  0.00    -0.170 A 
ATOM      6  N   LIG    1       -1.489   3.244   0.021  0.00  0.00    -0.330 NA
ATOM      7  N   LIG    1       -2.753   3.479   0.030  0.00  0.00    -0.190 NA
ATOM      8  N   LIG    1       -3.427   2.385   0.035  0.00  0.00    -0.370 NA
ATOM      9  C   LIG    1       -2.596   1.370   0.022  0.00  0.00    +0.080 A 
ENDBRANCH   2   5
BRANCH   3  10
ATOM     10  C   LIG    1        2.422   1.186  -0.015  0.00  0.00    +0.280 C 
BRANCH  10  11
ATOM     11  C   LIG    1        3.571   2.196  -0.020  0.00  0.00    +0.120 C 
ATOM     12  C   LIG    1        4.908   1.450  -0.040  0.00  0.00    +0.210 C 
ATOM     13  O   LIG    1        5.973   2.398  -0.158  0.00  0.00    -0.380 OA
ATOM     14  C   LIG    1        5.879   3.223  -1.323  0.00  0.00    +0.180 C 
ATOM     15  C   LIG    1        4.542   3.969  -1.303  0.00  0.00    +0.190 C 
ATOM     16  O   LIG    1        3.476   3.022  -1.184  0.00  0.00    -0.370 OA
ENDBRANCH  10  11
ENDBRANCH   3  10
TORSDOF 3
ENDMDL
MODEL       49
REMARK  Name = ZINC000098210277
REMARK                            x       y       z     vdW  Elec       q    Type
REMARK                         _______ _______ _______ _____ _____    ______ ____
ROOT
ATOM      1  N   LIG    1       -1.005  -2.212  -0.000  0.00  0.00    -0.290 N 
ATOM      2  C   LIG    1       -1.462  -3.118   0.894  0.00  0.00    +0.130 A 
ATOM      3  C   LIG    1       -0.958  -4.314   0.511  0.00  0.00    +0.000 A 
ATOM      4  N   LIG    1       -0.227  -4.084  -0.585  0.00  0.00    -0.260 NA
ATOM      5  N   LIG    1       -0.280  -2.829  -0.865  0.00  0.00    -0.060 NA
ENDROOT
BRANCH   1   6
ATOM      6  C   LIG    1       -1.293  -0.775   0.010  0.00  0.00    +0.370 C 
BRANCH   6  10
ATOM      7  N   LIG    1       -0.016   1.344   0.009  0.00  0.00    -0.850 N 
ATOM      8  H   LIG    1       -0.863   1.817   0.016  0.00  0.00    +0.400 HD
ATOM      9  H   LIG    1        0.817   1.840   0.004  0.00  0.00    +0.410 HD
ATOM     10  C   LIG    1        0.002  -0.004   0.002  0.00  0.00    +0.500 C 
ATOM     11  O   LIG    1        1.060  -0.596  -0.011  0.00  0.00    -0.510 OA
ENDBRANCH   6  10
ENDBRANCH   1   6
BRANCH   3  12
ATOM     12  C   LIG    1       -1.177  -5.644   1.186  0.00  0.00    +0.150 C 
BRANCH  12  13
ATOM     13  C   LIG    1       -1.729  -6.646   0.170  0.00  0.00    +0.150 C 
ATOM     14  N   LIG    1       -3.086  -6.261  -0.255  0.00  0.00    -0.770 N 
ATOM     15  H   LIG    1       -3.341  -5.442  -0.708  0.00  0.00    +0.390 HD
ATOM     16  C   LIG    1       -3.903  -7.266   0.109  0.00  0.00    +0.660 C 
ATOM     17  N   LIG    1       -3.249  -8.261   0.719  0.00  0.00    -0.730 NA
ATOM     18  O   LIG    1       -5.101  -7.269  -0.094  0.00  0.00    -0.620 OA
ATOM     19  C   LIG    1       -1.925  -8.004   0.814  0.00  0.00    +0.490 C 
ATOM     20  O   LIG    1       -1.076  -8.712   1.312  0.00  0.00    -0.560 OA
ENDBRANCH  12  13
ENDBRANCH   3  12
TORSDOF 4
ENDMDL
MODEL       50
REMARK  Name = ZINC000098210276
REMARK                            x       y       z     vdW  Elec       q    Type
REMARK                         _______ _______ _______ _____ _____    ______ ____
ROOT
ATOM      1  N   LIG    1       -1.005  -2.212  -0.000  0.00  0.00    -0.290 N 
ATOM      2  C   LIG    1       -1.462  -3.118   0.894  0.00  0.00    +0.130 A 
ATOM      3  C   LIG    1       -0.958  -4.314   0.511  0.00  0.00    +0.000 A 
ATOM      4  N   LIG    1       -0.227  -4.084  -0.585  0.00  0.00    -0.260 NA
ATOM      5  N   LIG    1       -0.280  -2.829  -0.865  0.00  0.00    -0.060 NA
ENDROOT
BRANCH   1   6
ATOM      6  C   LIG    1       -1.293  -0.775   0.010  0.00  0.00    +0.360 C 
BRANCH   6  10
ATOM      7  N   LIG    1       -0.016   1.344   0.009  0.00  0.00    -0.850 N 
ATOM      8  H   LIG    1       -0.863   1.817   0.016  0.00  0.00    +0.400 HD
ATOM      9  H   LIG    1        0.817   1.840   0.004  0.00  0.00    +0.410 HD
ATOM     10  C   LIG    1        0.002  -0.004   0.002  0.00  0.00    +0.500 C 
ATOM     11  O   LIG    1        1.060  -0.596  -0.011  0.00  0.00    -0.500 OA
ENDBRANCH   6  10
ENDBRANCH   1   6
BRANCH   3  12
ATOM     12  C   LIG    1       -1.177  -5.644   1.186  0.00  0.00    +0.140 C 
BRANCH  12  13
ATOM     13  C   LIG    1       -1.729  -6.646   0.170  0.00  0.00    +0.140 C 
ATOM     14  N   LIG    1       -0.717  -6.956  -0.854  0.00  0.00    -0.770 N 
ATOM     15  H   LIG    1       -0.310  -6.332  -1.476  0.00  0.00    +0.400 HD
ATOM     16  C   LIG    1       -0.466  -8.275  -0.761  0.00  0.00    +0.650 C 
ATOM     17  N   LIG    1       -1.189  -8.866   0.197  0.00  0.00    -0.730 NA
ATOM     18  O   LIG    1        0.328  -8.863  -1.468  0.00  0.00    -0.620 OA
ATOM     19  C   LIG    1       -1.993  -7.984   0.831  0.00  0.00    +0.490 C 
ATOM     20  O   LIG    1       -2.762  -8.217   1.739  0.00  0.00    -0.570 OA
ENDBRANCH  12  13
ENDBRANCH   3  12
TORSDOF 4
ENDMDL
MODEL       51
REMARK  Name = ZINC000004793244
REMARK                            x       y       z     vdW  Elec       q    Type
REMARK                         _______ _______ _______ _____ _____    ______ ____
ROOT
ATOM      1  C   LIG    1       -3.563  -0.089  -1.049  0.00  0.00    +0.210 C 
ATOM      2  C   LIG    1       -3.966   1.309  -0.511  0.00  0.00    -0.330 C 
ATOM      3  S   LIG    1       -5.762   1.338  -0.901  0.00  0.00    +2.390 S 
ATOM      4  C   LIG    1       -5.608   0.418  -2.478  0.00  0.00    -0.350 C 
ATOM      5  O   LIG    1       -6.172   2.674  -1.161  0.00  0.00    -0.940 OA
ATOM      6  O   LIG    1       -6.468   0.548   0.045  0.00  0.00    -0.930 OA
ATOM      7  C   LIG    1       -4.262  -0.314  -2.392  0.00  0.00    +0.210 C 
ENDROOT
BRANCH   1   8
ATOM      8  N   LIG    1       -2.107  -0.147  -1.234  0.00  0.00    -0.630 NA
ATOM      9  H   LIG    1       -1.751   0.731  -1.580  0.00  0.00    +0.320 HD
BRANCH   8  10
ATOM     10  CA  LIG    1       -1.433  -0.534   0.013  0.00  0.00    +0.060 C 
BRANCH  10  11
ATOM     11  C   LIG    1       -1.414  -2.036   0.129  0.00  0.00    +0.500 C 
ATOM     12  OXT LIG    1       -1.746  -2.725  -0.821  0.00  0.00    -0.660 OA
ATOM     13  O   LIG    1       -1.065  -2.563   1.171  0.00  0.00    -0.710 OA
ENDBRANCH  10  11
BRANCH  10  15
ATOM     14  C   LIG    1       -0.019   1.526   0.010  0.00  0.00    +0.000 C 
ATOM     15  C   LIG    1        0.002  -0.004   0.002  0.00  0.00    +0.030 C 
ENDBRANCH  10  15
ENDBRANCH   8  10
ENDBRANCH   1   8
BRANCH   7  16
ATOM     16  O   LIG    1       -4.484  -1.715  -2.562  0.00  0.00    -0.530 OA
ATOM     17  H   LIG    1       -4.867  -1.951  -3.418  0.00  0.00    +0.370 HD
ENDBRANCH   7  16
TORSDOF 5
ENDMDL
MODEL       52
REMARK  Name = ZINC000004792693
REMARK                            x       y       z     vdW  Elec       q    Type
REMARK                         _______ _______ _______ _____ _____    ______ ____
ROOT
ATOM      1  N   SER A  1       -2.424   1.001  -0.222  0.00  0.00    -0.650 NA
ATOM      2  H   SER A  1       -2.256   0.127   0.255  0.00  0.00    +0.360 HD
ENDROOT
BRANCH   1   3
ATOM      3  C   UNK A  0       -2.628   0.785  -1.660  0.00  0.00    +0.190 C 
ATOM      4  C   UNK A  0       -1.683  -0.323  -2.156  0.00  0.00    +0.060 C 
ATOM      5  C   UNK A  0       -2.174  -0.724  -3.571  0.00  0.00    -0.320 C 
ATOM      6  S   UNK A  0       -3.994  -0.771  -3.363  0.00  0.00    +2.380 S 
ATOM      7  O   UNK A  0       -4.390  -2.080  -2.975  0.00  0.00    -0.940 OA
ATOM      8  O   UNK A  0       -4.612  -0.147  -4.480  0.00  0.00    -0.950 OA
ATOM      9  C   UNK A  0       -4.082   0.343  -1.918  0.00  0.00    -0.310 C 
ENDBRANCH   1   3
BRANCH   1  10
ATOM     10  CA  SER A  1       -1.330   1.951   0.019  0.00  0.00    +0.090 C 
BRANCH  10  12
ATOM     11  O   SER A  1        0.002  -0.004   0.002  0.00  0.00    -0.680 OA
ATOM     12  C   SER A  1       -0.015   1.215   0.009  0.00  0.00    +0.480 C 
ATOM     13  OXT SER A  1        1.033   1.839   0.002  0.00  0.00    -0.700 OA
ENDBRANCH  10  12
BRANCH  10  14
ATOM     14  CB  SER A  1       -1.527   2.623   1.379  0.00  0.00    +0.190 C 
BRANCH  14  15
ATOM     15  OG  SER A  1       -1.413   1.645   2.415  0.00  0.00    -0.560 OA
ATOM     16  H   SER A  1       -1.528   2.001   3.306  0.00  0.00    +0.360 HD
ENDBRANCH  14  15
ENDBRANCH  10  14
ENDBRANCH   1  10
TORSDOF 5
ENDMDL
MODEL       53
REMARK  Name = ZINC000004792689
REMARK                            x       y       z     vdW  Elec       q    Type
REMARK                         _______ _______ _______ _____ _____    ______ ____
ROOT
ATOM      1  N   SER A  1       -2.424   1.001  -0.222  0.00  0.00    -0.650 NA
ATOM      2  H   SER A  1       -2.256   0.127   0.255  0.00  0.00    +0.360 HD
ENDROOT
BRANCH   1   3
ATOM      3  C   UNK A  0       -2.628   0.785  -1.660  0.00  0.00    +0.160 C 
ATOM      4  C   UNK A  0       -3.588   1.848  -2.221  0.00  0.00    +0.070 C 
ATOM      5  C   UNK A  0       -4.049   1.407  -3.625  0.00  0.00    -0.320 C 
ATOM      6  S   UNK A  0       -3.960  -0.420  -3.603  0.00  0.00    +2.390 S 
ATOM      7  O   UNK A  0       -2.982  -0.855  -4.537  0.00  0.00    -0.940 OA
ATOM      8  O   UNK A  0       -5.275  -0.956  -3.653  0.00  0.00    -0.950 OA
ATOM      9  C   UNK A  0       -3.298  -0.592  -1.901  0.00  0.00    -0.300 C 
ENDBRANCH   1   3
BRANCH   1  10
ATOM     10  CA  SER A  1       -1.330   1.951   0.019  0.00  0.00    +0.090 C 
BRANCH  10  12
ATOM     11  O   SER A  1        0.002  -0.004   0.002  0.00  0.00    -0.690 OA
ATOM     12  C   SER A  1       -0.015   1.215   0.009  0.00  0.00    +0.480 C 
ATOM     13  OXT SER A  1        1.033   1.839   0.002  0.00  0.00    -0.700 OA
ENDBRANCH  10  12
BRANCH  10  14
ATOM     14  CB  SER A  1       -1.527   2.623   1.379  0.00  0.00    +0.190 C 
BRANCH  14  15
ATOM     15  OG  SER A  1       -1.413   1.645   2.415  0.00  0.00    -0.560 OA
ATOM     16  H   SER A  1       -1.528   2.001   3.306  0.00  0.00    +0.360 HD
ENDBRANCH  14  15
ENDBRANCH  10  14
ENDBRANCH   1  10
TORSDOF 5
ENDMDL
MODEL       54
REMARK  Name = ZINC000004556685
REMARK                            x       y       z     vdW  Elec       q    Type
REMARK                         _______ _______ _______ _____ _____    ______ ____
ROOT
ATOM      1  C   LEU A  1       -2.814  -2.572  -0.234  0.00  0.00    +0.470 C 
ATOM      2  N   SER A  2       -3.318  -2.603  -1.484  0.00  0.00    -0.690 N 
ATOM      3  H   SER A  2       -2.781  -2.294  -2.230  0.00  0.00    +0.400 HD
ATOM      4  O   LEU A  1       -3.485  -2.958   0.700  0.00  0.00    -0.560 OA
ENDROOT
BRANCH   1   5
ATOM      5  CA  LEU A  1       -1.417  -2.058   0.003  0.00  0.00    +0.180 C 
BRANCH   5   6
ATOM      6  N   LEU A  1       -0.927  -2.550   1.297  0.00  0.00    -0.820 NA
ATOM      7  H1  LEU A  1       -0.847  -3.556   1.294  0.00  0.00    +0.340 HD
ATOM      8  H2  LEU A  1       -1.519  -2.237   2.051  0.00  0.00    +0.350 HD
ENDBRANCH   5   6
BRANCH   5   9
ATOM      9  CB  LEU A  1       -1.432  -0.528   0.012  0.00  0.00    +0.050 C 
BRANCH   9  11
ATOM     10  CD1 LEU A  1        0.799  -0.377  -1.102  0.00  0.00    +0.000 C 
ATOM     11  CG  LEU A  1       -0.000  -0.005   0.148  0.00  0.00    -0.010 C 
ATOM     12  CD2 LEU A  1       -0.026   1.517   0.303  0.00  0.00    +0.000 C 
ENDBRANCH   9  11
ENDBRANCH   5   9
ENDBRANCH   1   5
BRANCH   2  13
ATOM     13  CA  SER A  2       -4.675  -3.102  -1.714  0.00  0.00    +0.160 C 
BRANCH  13  14
ATOM     14  C   SER A  2       -5.665  -1.987  -1.498  0.00  0.00    +0.500 C 
ATOM     15  OXT SER A  2       -6.790  -2.238  -1.099  0.00  0.00    -0.700 OA
ATOM     16  O   SER A  2       -5.341  -0.833  -1.721  0.00  0.00    -0.680 OA
ENDBRANCH  13  14
BRANCH  13  17
ATOM     17  CB  SER A  2       -4.793  -3.617  -3.150  0.00  0.00    +0.190 C 
BRANCH  17  18
ATOM     18  OG  SER A  2       -4.631  -2.528  -4.061  0.00  0.00    -0.550 OA
ATOM     19  H   SER A  2       -4.694  -2.781  -4.992  0.00  0.00    +0.360 HD
ENDBRANCH  17  18
ENDBRANCH  13  17
ENDBRANCH   2  13
TORSDOF 8
ENDMDL
MODEL       55
REMARK  Name = ZINC000005328959
REMARK                            x       y       z     vdW  Elec       q    Type
REMARK                         _______ _______ _______ _____ _____    ______ ____
ROOT
ATOM      1  N   LIG    1       -0.016   1.344   0.009  0.00  0.00    -0.860 N 
ATOM      2  H   LIG    1       -0.863   1.817   0.016  0.00  0.00    +0.400 HD
ATOM      3  H   LIG    1        0.817   1.840   0.004  0.00  0.00    +0.420 HD
ATOM      4  C   LIG    1        0.002  -0.004   0.002  0.00  0.00    +0.690 C 
ATOM      5  N   LIG    1       -1.156  -0.694   0.009  0.00  0.00    -0.690 N 
ATOM      6  H   LIG    1       -2.002  -0.220   0.020  0.00  0.00    +0.410 HD
ATOM      7  C   LIG    1       -1.137  -2.041   0.002  0.00  0.00    +0.520 C 
ATOM      8  O   LIG    1       -0.080  -2.633  -0.011  0.00  0.00    -0.460 OA
ATOM      9  O   LIG    1        1.063  -0.597  -0.011  0.00  0.00    -0.540 OA
ENDROOT
BRANCH   7  10
ATOM     10  C   LIG    1       -2.432  -2.813   0.010  0.00  0.00    +0.080 C 
BRANCH  10  11
ATOM     11  C   LIG    1       -2.132  -4.313  -0.001  0.00  0.00    +0.150 C 
ATOM     12  N   LIG    1       -1.493  -4.723   1.262  0.00  0.00    -0.770 N 
ATOM     13  H   LIG    1       -0.644  -4.409   1.610  0.00  0.00    +0.400 HD
ATOM     14  C   LIG    1       -2.317  -5.617   1.837  0.00  0.00    +0.650 C 
ATOM     15  N   LIG    1       -3.415  -5.843   1.108  0.00  0.00    -0.720 NA
ATOM     16  O   LIG    1       -2.088  -6.160   2.901  0.00  0.00    -0.620 OA
ATOM     17  C   LIG    1       -3.419  -5.114  -0.029  0.00  0.00    +0.490 C 
ATOM     18  O   LIG    1       -4.274  -5.101  -0.888  0.00  0.00    -0.570 OA
ENDBRANCH  10  11
ENDBRANCH   7  10
TORSDOF 2
ENDMDL
MODEL       56
REMARK  Name = ZINC000001738553
REMARK                            x       y       z     vdW  Elec       q    Type
REMARK                         _______ _______ _______ _____ _____    ______ ____
ROOT
ATOM      1  N   LIG    1       -0.016   1.344   0.009  0.00  0.00    -0.860 N 
ATOM      2  H   LIG    1       -0.863   1.817   0.016  0.00  0.00    +0.400 HD
ATOM      3  H   LIG    1        0.817   1.840   0.004  0.00  0.00    +0.420 HD
ATOM      4  C   LIG    1        0.002  -0.004   0.002  0.00  0.00    +0.690 C 
ATOM      5  N   LIG    1       -1.156  -0.694   0.009  0.00  0.00    -0.690 N 
ATOM      6  H   LIG    1       -2.002  -0.220   0.020  0.00  0.00    +0.410 HD
ATOM      7  C   LIG    1       -1.137  -2.041   0.002  0.00  0.00    +0.520 C 
ATOM      8  O   LIG    1       -0.080  -2.633  -0.011  0.00  0.00    -0.460 OA
ATOM      9  O   LIG    1        1.063  -0.597  -0.011  0.00  0.00    -0.540 OA
ENDROOT
BRANCH   7  10
ATOM     10  C   LIG    1       -2.432  -2.813   0.010  0.00  0.00    +0.080 C 
BRANCH  10  11
ATOM     11  C   LIG    1       -2.132  -4.313  -0.001  0.00  0.00    +0.150 C 
ATOM     12  N   LIG    1       -1.517  -4.709  -1.279  0.00  0.00    -0.770 N 
ATOM     13  H   LIG    1       -0.675  -4.391  -1.641  0.00  0.00    +0.400 HD
ATOM     14  C   LIG    1       -2.352  -5.598  -1.849  0.00  0.00    +0.650 C 
ATOM     15  N   LIG    1       -3.437  -5.832  -1.101  0.00  0.00    -0.720 NA
ATOM     16  O   LIG    1       -2.144  -6.128  -2.922  0.00  0.00    -0.620 OA
ATOM     17  C   LIG    1       -3.418  -5.114   0.044  0.00  0.00    +0.490 C 
ATOM     18  O   LIG    1       -4.256  -5.112   0.920  0.00  0.00    -0.570 OA
ENDBRANCH  10  11
ENDBRANCH   7  10
TORSDOF 2
ENDMDL
MODEL       57
REMARK  Name = ZINC000004955570
REMARK                            x       y       z     vdW  Elec       q    Type
REMARK                         _______ _______ _______ _____ _____    ______ ____
ROOT
ATOM      1  S   LIG    1        1.566  -4.108  -2.691  0.00  0.00    +2.690 S 
ATOM      2  O   LIG    1        0.271  -4.642  -2.930  0.00  0.00    -1.060 OA
ATOM      3  O   LIG    1        2.447  -4.619  -1.700  0.00  0.00    -1.050 OA
ENDROOT
BRANCH   1   4
ATOM      4  N   LIG    1        2.380  -4.196  -4.131  0.00  0.00    -1.000 N 
ATOM      5  H   LIG    1        1.949  -4.583  -4.909  0.00  0.00    +0.420 HD
BRANCH   4   6
ATOM      6  C   LIG    1        3.675  -3.717  -4.224  0.00  0.00    +0.580 A 
ATOM      7  N   LIG    1        4.147  -2.936  -3.263  0.00  0.00    -0.500 NA
ATOM      8  C   LIG    1        5.380  -2.462  -3.321  0.00  0.00    +0.360 A 
ATOM      9  C   LIG    1        6.181  -2.791  -4.403  0.00  0.00    -0.150 A 
ATOM     10  C   LIG    1        5.656  -3.610  -5.391  0.00  0.00    +0.330 A 
ATOM     11  N   LIG    1        4.416  -4.054  -5.269  0.00  0.00    -0.560 NA
ENDBRANCH   4   6
ENDBRANCH   1   4
BRANCH   1  12
ATOM     12  N   LIG    1        1.354  -2.503  -2.345  0.00  0.00    -1.140 NA
BRANCH  12  13
ATOM     13  C   LIG    1        0.657  -2.104  -1.120  0.00  0.00    +0.240 C 
BRANCH  13  14
ATOM     14  C   LIG    1        0.598  -0.600  -1.043  0.00  0.00    +0.470 C 
ATOM     15  O   LIG    1        1.088   0.070  -1.921  0.00  0.00    -0.490 OA
BRANCH  14  17
ATOM     16  C   LIG    1       -0.018   1.448   0.010  0.00  0.00    +0.230 C 
ATOM     17  O   LIG    1        0.002  -0.004   0.002  0.00  0.00    -0.380 OA
ENDBRANCH  14  17
ENDBRANCH  13  14
ENDBRANCH  12  13
ENDBRANCH   1  12
TORSDOF 6
ENDMDL
MODEL       58
REMARK  Name = ZINC000001578621
REMARK                            x       y       z     vdW  Elec       q    Type
REMARK                         _______ _______ _______ _____ _____    ______ ____
ROOT
ATOM      1  C   VAL A  1       -2.162  -0.034  -1.208  0.00  0.00    +0.480 C 
ATOM      2  N   SER A  2       -2.660   1.218  -1.230  0.00  0.00    -0.690 N 
ATOM      3  H   SER A  2       -2.549   1.798  -0.461  0.00  0.00    +0.400 HD
ATOM      4  O   VAL A  1       -2.301  -0.759  -2.170  0.00  0.00    -0.560 OA
ENDROOT
BRANCH   1   5
ATOM      5  CA  VAL A  1       -1.433  -0.534   0.013  0.00  0.00    +0.170 C 
BRANCH   5   7
ATOM      6  CG1 VAL A  1       -0.019   1.526   0.010  0.00  0.00    +0.030 C 
ATOM      7  CB  VAL A  1        0.002  -0.004   0.002  0.00  0.00    -0.010 C 
ATOM      8  CG2 VAL A  1        0.742  -0.511   1.242  0.00  0.00    +0.030 C 
ENDBRANCH   5   7
BRANCH   5   9
ATOM      9  N   VAL A  1       -1.413  -2.002   0.005  0.00  0.00    -0.820 NA
ATOM     10  H1  VAL A  1       -0.945  -2.353  -0.817  0.00  0.00    +0.350 HD
ATOM     11  H2  VAL A  1       -2.348  -2.377   0.077  0.00  0.00    +0.340 HD
ENDBRANCH   5   9
ENDBRANCH   1   5
BRANCH   2  12
ATOM     12  CA  SER A  2       -3.369   1.703  -2.417  0.00  0.00    +0.160 C 
BRANCH  12  13
ATOM     13  C   SER A  2       -2.372   2.236  -3.414  0.00  0.00    +0.500 C 
ATOM     14  OXT SER A  2       -2.758   2.691  -4.478  0.00  0.00    -0.700 OA
ATOM     15  O   SER A  2       -1.181   2.213  -3.157  0.00  0.00    -0.680 OA
ENDBRANCH  12  13
BRANCH  12  16
ATOM     16  CB  SER A  2       -4.334   2.820  -2.014  0.00  0.00    +0.190 C 
BRANCH  16  17
ATOM     17  OG  SER A  2       -3.591   3.941  -1.533  0.00  0.00    -0.560 OA
ATOM     18  H   SER A  2       -4.140   4.688  -1.258  0.00  0.00    +0.370 HD
ENDBRANCH  16  17
ENDBRANCH  12  16
ENDBRANCH   2  12
TORSDOF 7
ENDMDL
MODEL       59
REMARK  Name = ZINC000000334796
REMARK                            x       y       z     vdW  Elec       q    Type
REMARK                         _______ _______ _______ _____ _____    ______ ____
ROOT
ATOM      1  C   LIG    1       -0.003   1.462   0.016  0.00  0.00    +0.300 C 
ATOM      2  N   LIG    1        0.012  -0.003   0.006  0.00  0.00    -0.750 N 
ATOM      3  H   LIG    1       -0.396  -0.497   0.734  0.00  0.00    +0.400 HD
ATOM      4  C   LIG    1        0.592  -0.664  -1.015  0.00  0.00    +0.690 C 
ATOM      5  N   LIG    1        0.606  -2.011  -1.024  0.00  0.00    -0.680 N 
ATOM      6  H   LIG    1        0.198  -2.506  -0.296  0.00  0.00    +0.420 HD
ATOM      7  C   LIG    1        1.186  -2.673  -2.045  0.00  0.00    +0.600 C 
ATOM      8  O   LIG    1        1.613  -2.057  -3.004  0.00  0.00    -0.510 OA
ATOM      9  O   LIG    1        1.104  -0.045  -1.928  0.00  0.00    -0.550 OA
ENDROOT
BRANCH   7  10
ATOM     10  C   LIG    1        1.304  -4.137  -2.001  0.00  0.00    -0.370 A 
ATOM     11  C   LIG    1        1.992  -4.825  -2.981  0.00  0.00    +0.390 A 
ATOM     12  N   LIG    1        2.080  -6.178  -2.906  0.00  0.00    -0.550 N 
ATOM     13  C   LIG    1        1.514  -6.864  -1.901  0.00  0.00    +0.640 A 
ATOM     14  N   LIG    1        0.831  -6.255  -0.916  0.00  0.00    -0.680 NA
ATOM     15  O   LIG    1        1.621  -8.074  -1.881  0.00  0.00    -0.600 OA
ATOM     16  C   LIG    1        2.811  -6.907  -3.947  0.00  0.00    +0.290 C 
ATOM     17  C   LIG    1        0.697  -4.912  -0.906  0.00  0.00    +0.540 A 
ATOM     18  O   LIG    1        0.080  -4.355  -0.018  0.00  0.00    -0.590 OA
ENDBRANCH   7  10
TORSDOF 1
ENDMDL
MODEL       60
REMARK  Name = ZINC000002168275
REMARK                            x       y       z     vdW  Elec       q    Type
REMARK                         _______ _______ _______ _____ _____    ______ ____
ROOT
ATOM      1  C   LIG    1        1.300  -4.200   2.081  0.00  0.00    +0.200 C 
ENDROOT
BRANCH   1   3
ATOM      2  C   LIG    1        0.706  -2.034   1.137  0.00  0.00    +0.227 C 
ATOM      3  N   LIG    1        1.300  -2.736   2.123  0.00  0.00    -0.306 N 
ATOM      4  H   LIG    1        1.727  -2.272   2.860  0.00  0.00    +0.149 HD
ATOM      5  O   LIG    1        0.172  -2.614   0.216  0.00  0.00    -0.274 OA
BRANCH   2   6
ATOM      6  C   LIG    1        0.706  -0.527   1.180  0.00  0.00    +0.177 C 
BRANCH   6   8
ATOM      7  C   LIG    1       -0.018   1.465   0.010  0.00  0.00    +0.101 C 
ATOM      8  N   LIG    1        0.002  -0.004   0.002  0.00  0.00    -0.311 NA
ATOM      9  H   LIG    1       -0.933  -0.378  -0.056  0.00  0.00    +0.122 HD
ENDBRANCH   6   8
ENDBRANCH   2   6
ENDBRANCH   1   3
BRANCH   1  10
ATOM     10  C   LIG    1        2.022  -4.737   3.290  0.00  0.00    +0.231 C 
ATOM     11  N   LIG    1        2.147  -6.068   3.464  0.00  0.00    -0.303 N 
ATOM     12  H   LIG    1        1.772  -6.680   2.812  0.00  0.00    +0.149 HD
ATOM     13  O   LIG    1        2.490  -3.972   4.106  0.00  0.00    -0.274 OA
BRANCH  11  14
ATOM     14  C   LIG    1        2.849  -6.590   4.639  0.00  0.00    +0.229 C 
BRANCH  14  15
ATOM     15  C   LIG    1        2.849  -8.097   4.596  0.00  0.00    +0.373 C 
ATOM     16  O   LIG    1        3.386  -8.732   5.488  0.00  0.00    -0.245 OA
ATOM     17  O   LIG    1        2.312  -8.680   3.670  0.00  0.00    -0.245 OA
ENDBRANCH  14  15
ENDBRANCH  11  14
ENDBRANCH   1  10
TORSDOF 6
ENDMDL
MODEL       61
REMARK  Name = ZINC000002314938
REMARK                            x       y       z     vdW  Elec       q    Type
REMARK                         _______ _______ _______ _____ _____    ______ ____
ROOT
ATOM      1  C   LIG    1       -3.543  -0.101   1.120  0.00  0.00    +0.170 C 
ATOM      2  C   LIG    1       -3.930   1.285   0.565  0.00  0.00    -0.280 C 
ATOM      3  S   LIG    1       -5.548   1.612   1.374  0.00  0.00    +2.380 S 
ATOM      4  C   LIG    1       -5.085   0.778   2.945  0.00  0.00    -0.330 C 
ATOM      5  O   LIG    1       -6.571   0.875   0.720  0.00  0.00    -0.930 OA
ATOM      6  O   LIG    1       -5.702   3.007   1.596  0.00  0.00    -0.940 OA
ATOM      7  C   LIG    1       -4.196  -0.384   2.467  0.00  0.00    +0.200 C 
ENDROOT
BRANCH   1   8
ATOM      8  N   LIG    1       -2.083  -0.161   1.276  0.00  0.00    -0.660 NA
ATOM      9  H   LIG    1       -1.825  -0.795   2.017  0.00  0.00    +0.350 HD
BRANCH   8  10
ATOM     10  CA  LIG    1       -1.433  -0.534   0.013  0.00  0.00    +0.090 C 
BRANCH  10  11
ATOM     11  C   LIG    1       -1.416  -2.035  -0.119  0.00  0.00    +0.470 C 
ATOM     12  OXT LIG    1       -1.451  -2.550  -1.224  0.00  0.00    -0.700 OA
ATOM     13  O   LIG    1       -1.367  -2.734   0.878  0.00  0.00    -0.690 OA
ENDBRANCH  10  11
BRANCH  10  15
ATOM     14  C   LIG    1       -0.019   1.526   0.010  0.00  0.00    -0.000 C 
ATOM     15  C   LIG    1        0.002  -0.004   0.002  0.00  0.00    +0.030 C 
ENDBRANCH  10  15
ENDBRANCH   8  10
ENDBRANCH   1   8
BRANCH   7  16
ATOM     16  O   LIG    1       -4.997  -1.562   2.348  0.00  0.00    -0.550 OA
ATOM     17  H   LIG    1       -5.398  -1.851   3.179  0.00  0.00    +0.380 HD
ENDBRANCH   7  16
TORSDOF 5
ENDMDL
MODEL       62
REMARK  Name = ZINC000012322351
REMARK                            x       y       z     vdW  Elec       q    Type
REMARK                         _______ _______ _______ _____ _____    ______ ____
ROOT
ATOM      1  O   LIG    1        0.030   0.005  -0.309  0.00  0.00    -0.490 OA
ATOM      2  C   LIG    1       -0.003   1.209  -0.155  0.00  0.00    +0.510 C 
ATOM      3  N   LIG    1        1.143   1.900   0.001  0.00  0.00    -0.620 N 
ATOM      4  H   LIG    1        1.123   2.868   0.051  0.00  0.00    +0.410 HD
ENDROOT
BRANCH   3   5
ATOM      5  C   LIG    1        2.366   1.218   0.092  0.00  0.00    -0.080 A 
ATOM      6  C   LIG    1        3.369   1.472  -0.786  0.00  0.00    +0.270 A 
ATOM      7  N   LIG    1        4.553   0.791  -0.673  0.00  0.00    -0.660 N 
ATOM      8  H   LIG    1        5.268   0.975  -1.302  0.00  0.00    +0.390 HD
ATOM      9  C   LIG    1        4.742  -0.124   0.291  0.00  0.00    +0.640 A 
ATOM     10  N   LIG    1        3.783  -0.415   1.187  0.00  0.00    -0.690 NA
ATOM     11  O   LIG    1        5.808  -0.705   0.355  0.00  0.00    -0.610 OA
ATOM     12  C   LIG    1        2.593   0.220   1.141  0.00  0.00    +0.530 A 
ATOM     13  O   LIG    1        1.720  -0.038   1.950  0.00  0.00    -0.580 OA
ENDBRANCH   3   5
BRANCH   2  14
ATOM     14  C   LIG    1       -1.313   1.924  -0.146  0.00  0.00    +0.520 C 
ATOM     15  N   LIG    1       -2.459   1.234  -0.308  0.00  0.00    -0.680 N 
ATOM     16  H   LIG    1       -2.433   0.272  -0.431  0.00  0.00    +0.420 HD
ATOM     17  O   LIG    1       -1.346   3.128   0.007  0.00  0.00    -0.520 OA
BRANCH  15  18
ATOM     18  C   LIG    1       -3.745   1.936  -0.299  0.00  0.00    +0.220 C 
ATOM     19  C   LIG    1       -4.773   1.542  -1.362  0.00  0.00    +0.010 C 
ATOM     20  C   LIG    1       -4.986   1.134   0.097  0.00  0.00    +0.020 C 
ENDBRANCH  15  18
ENDBRANCH   2  14
TORSDOF 3
ENDMDL
MODEL       63
REMARK  Name = ZINC000002555108
REMARK                            x       y       z     vdW  Elec       q    Type
REMARK                         _______ _______ _______ _____ _____    ______ ____
ROOT
ATOM      1  CA  GLN A  2        1.760  -2.310   2.502  0.00  0.00    +0.160 C 
ENDROOT
BRANCH   1   3
ATOM      2  C   GLY A  1        0.814  -0.502   1.170  0.00  0.00    +0.510 C 
ATOM      3  N   GLN A  2        0.971  -1.826   1.366  0.00  0.00    -0.700 N 
ATOM      4  H   GLN A  2        0.562  -2.459   0.755  0.00  0.00    +0.390 HD
ATOM      5  O   GLY A  1        1.325   0.289   1.934  0.00  0.00    -0.540 OA
BRANCH   2   6
ATOM      6  CA  GLY A  1        0.002  -0.004   0.002  0.00  0.00    +0.190 C 
BRANCH   6   7
ATOM      7  N   GLY A  1       -0.018   1.465   0.010  0.00  0.00    -0.830 NA
ATOM      8  H1  GLY A  1       -0.556   1.823  -0.764  0.00  0.00    +0.340 HD
ATOM      9  H2  GLY A  1        0.919   1.839   0.003  0.00  0.00    +0.350 HD
ENDBRANCH   6   7
ENDBRANCH   2   6
ENDBRANCH   1   3
BRANCH   1  10
ATOM     10  C   GLN A  2        3.219  -2.339   2.124  0.00  0.00    +0.490 C 
ATOM     11  OXT GLN A  2        4.050  -2.713   2.933  0.00  0.00    -0.700 OA
ATOM     12  O   GLN A  2        3.567  -1.988   1.010  0.00  0.00    -0.690 OA
ENDBRANCH   1  10
BRANCH   1  13
ATOM     13  CB  GLN A  2        1.302  -3.721   2.876  0.00  0.00    +0.070 C 
BRANCH  13  14
ATOM     14  CG  GLN A  2       -0.142  -3.672   3.378  0.00  0.00    +0.040 C 
BRANCH  14  15
ATOM     15  CD  GLN A  2       -0.593  -5.062   3.747  0.00  0.00    +0.510 C 
ATOM     16  OE1 GLN A  2        0.166  -5.999   3.621  0.00  0.00    -0.540 OA
ATOM     17  NE2 GLN A  2       -1.840  -5.263   4.218  0.00  0.00    -0.860 N 
ATOM     18 HE21 GLN A  2       -2.130  -6.158   4.455  0.00  0.00    +0.400 HD
ATOM     19 HE22 GLN A  2       -2.447  -4.513   4.319  0.00  0.00    +0.400 HD
ENDBRANCH  14  15
ENDBRANCH  13  14
ENDBRANCH   1  13
TORSDOF 7
ENDMDL
MODEL       64
REMARK  Name = ZINC000004533504
REMARK                            x       y       z     vdW  Elec       q    Type
REMARK                         _______ _______ _______ _____ _____    ______ ____
ROOT
ATOM      1  CA  HIS A  2       -3.014  -2.361   0.018  0.00  0.00    +0.170 C 
ENDROOT
BRANCH   1   3
ATOM      2  C   GLY A  1       -1.412  -0.526   0.013  0.00  0.00    +0.510 C 
ATOM      3  N   HIS A  2       -1.640  -1.854   0.008  0.00  0.00    -0.680 N 
ATOM      4  H   HIS A  2       -0.894  -2.474  -0.003  0.00  0.00    +0.390 HD
ATOM      5  O   GLY A  1       -2.344   0.250   0.026  0.00  0.00    -0.550 OA
BRANCH   2   6
ATOM      6  CA  GLY A  1        0.002  -0.004   0.002  0.00  0.00    +0.190 C 
BRANCH   6   7
ATOM      7  N   GLY A  1       -0.018   1.465   0.010  0.00  0.00    -0.830 NA
ATOM      8  H1  GLY A  1       -0.556   1.823  -0.764  0.00  0.00    +0.350 HD
ATOM      9  H2  GLY A  1        0.919   1.839   0.003  0.00  0.00    +0.340 HD
ENDBRANCH   6   7
ENDBRANCH   2   6
ENDBRANCH   1   3
BRANCH   1  10
ATOM     10  C   HIS A  2       -3.542  -2.411  -1.393  0.00  0.00    +0.490 C 
ATOM     11  OXT HIS A  2       -4.724  -2.630  -1.594  0.00  0.00    -0.700 OA
ATOM     12  O   HIS A  2       -2.786  -2.233  -2.333  0.00  0.00    -0.690 OA
ENDBRANCH   1  10
BRANCH   1  13
ATOM     13  CB  HIS A  2       -3.035  -3.767   0.621  0.00  0.00    +0.130 C 
BRANCH  13  14
ATOM     14  CG  HIS A  2       -2.624  -3.700   2.069  0.00  0.00    +0.020 A 
ATOM     15  CD2 HIS A  2       -3.328  -4.174   3.114  0.00  0.00    +0.110 A 
ATOM     16  NE2 HIS A  2       -2.595  -3.906   4.239  0.00  0.00    -0.580 N 
ATOM     17  HE2 HIS A  2       -2.840  -4.127   5.151  0.00  0.00    +0.410 HD
ATOM     18  CE1 HIS A  2       -1.469  -3.276   3.842  0.00  0.00    +0.370 A 
ATOM     19  ND1 HIS A  2       -1.490  -3.161   2.542  0.00  0.00    -0.480 NA
ENDBRANCH  13  14
ENDBRANCH   1  13
TORSDOF 6
ENDMDL
MODEL       65
REMARK  Name = ZINC000004533504
REMARK                            x       y       z     vdW  Elec       q    Type
REMARK                         _______ _______ _______ _____ _____    ______ ____
ROOT
ATOM      1  CA  HIS A  2        1.760  -2.310   2.502  0.00  0.00    +0.170 C 
ENDROOT
BRANCH   1   3
ATOM      2  C   GLY A  1        0.814  -0.502   1.170  0.00  0.00    +0.510 C 
ATOM      3  N   HIS A  2        0.971  -1.826   1.366  0.00  0.00    -0.690 N 
ATOM      4  H   HIS A  2        0.562  -2.459   0.755  0.00  0.00    +0.390 HD
ATOM      5  O   GLY A  1        1.325   0.289   1.934  0.00  0.00    -0.540 OA
BRANCH   2   6
ATOM      6  CA  GLY A  1        0.002  -0.004   0.002  0.00  0.00    +0.200 C 
BRANCH   6   7
ATOM      7  N   GLY A  1       -0.018   1.465   0.010  0.00  0.00    -0.830 NA
ATOM      8  H1  GLY A  1       -0.556   1.823  -0.764  0.00  0.00    +0.340 HD
ATOM      9  H2  GLY A  1        0.919   1.839   0.003  0.00  0.00    +0.350 HD
ENDBRANCH   6   7
ENDBRANCH   2   6
ENDBRANCH   1   3
BRANCH   1  10
ATOM     10  C   HIS A  2        0.886  -2.379   3.727  0.00  0.00    +0.490 C 
ATOM     11  OXT HIS A  2        1.373  -2.216   4.833  0.00  0.00    -0.690 OA
ATOM     12  O   HIS A  2       -0.308  -2.599   3.613  0.00  0.00    -0.690 OA
ENDBRANCH   1  10
BRANCH   1  13
ATOM     13  CB  HIS A  2        2.307  -3.704   2.186  0.00  0.00    +0.130 C 
BRANCH  13  14
ATOM     14  CG  HIS A  2        3.277  -3.614   1.036  0.00  0.00    +0.000 A 
ATOM     15  CD2 HIS A  2        2.971  -3.627  -0.276  0.00  0.00    +0.130 A 
ATOM     16  NE2 HIS A  2        4.114  -3.527  -0.970  0.00  0.00    -0.500 NA
ATOM     17  CE1 HIS A  2        5.117  -3.453  -0.138  0.00  0.00    +0.370 A 
ATOM     18  ND1 HIS A  2        4.638  -3.497   1.124  0.00  0.00    -0.570 N 
ATOM     19  HD1 HIS A  2        5.161  -3.460   1.940  0.00  0.00    +0.420 HD
ENDBRANCH  13  14
ENDBRANCH   1  13
TORSDOF 6
ENDMDL
MODEL       66
REMARK  Name = ZINC000004533503
REMARK                            x       y       z     vdW  Elec       q    Type
REMARK                         _______ _______ _______ _____ _____    ______ ____
ROOT
ATOM      1  CA  HIS A  2       -3.014  -2.361   0.018  0.00  0.00    +0.180 C 
ENDROOT
BRANCH   1   3
ATOM      2  C   GLY A  1       -1.412  -0.526   0.013  0.00  0.00    +0.500 C 
ATOM      3  N   HIS A  2       -1.640  -1.854   0.008  0.00  0.00    -0.690 N 
ATOM      4  H   HIS A  2       -0.894  -2.474  -0.003  0.00  0.00    +0.390 HD
ATOM      5  O   GLY A  1       -2.344   0.250   0.026  0.00  0.00    -0.530 OA
BRANCH   2   6
ATOM      6  CA  GLY A  1        0.002  -0.004   0.002  0.00  0.00    +0.200 C 
BRANCH   6   7
ATOM      7  N   GLY A  1       -0.018   1.465   0.010  0.00  0.00    -0.830 NA
ATOM      8  H1  GLY A  1       -0.556   1.823  -0.764  0.00  0.00    +0.350 HD
ATOM      9  H2  GLY A  1        0.919   1.839   0.003  0.00  0.00    +0.340 HD
ENDBRANCH   6   7
ENDBRANCH   2   6
ENDBRANCH   1   3
BRANCH   1  10
ATOM     10  C   HIS A  2       -3.515  -2.426   1.438  0.00  0.00    +0.490 C 
ATOM     11  OXT HIS A  2       -2.733  -2.625   2.352  0.00  0.00    -0.690 OA
ATOM     12  O   HIS A  2       -4.702  -2.281   1.673  0.00  0.00    -0.690 OA
ENDBRANCH   1  10
BRANCH   1  13
ATOM     13  CB  HIS A  2       -3.046  -3.761  -0.599  0.00  0.00    +0.140 C 
BRANCH  13  14
ATOM     14  CG  HIS A  2       -2.663  -3.677  -2.054  0.00  0.00    +0.030 A 
ATOM     15  CD2 HIS A  2       -1.678  -4.372  -2.654  0.00  0.00    +0.100 A 
ATOM     16  NE2 HIS A  2       -1.673  -3.997  -3.970  0.00  0.00    -0.580 N 
ATOM     17  HE2 HIS A  2       -1.075  -4.324  -4.660  0.00  0.00    +0.410 HD
ATOM     18  CE1 HIS A  2       -2.656  -3.084  -4.129  0.00  0.00    +0.370 A 
ATOM     19  ND1 HIS A  2       -3.247  -2.902  -2.979  0.00  0.00    -0.480 NA
ENDBRANCH  13  14
ENDBRANCH   1  13
TORSDOF 6
ENDMDL
MODEL       67
REMARK  Name = ZINC000004533503
REMARK                            x       y       z     vdW  Elec       q    Type
REMARK                         _______ _______ _______ _____ _____    ______ ____
ROOT
ATOM      1  CA  HIS A  2        1.760  -2.310   2.502  0.00  0.00    +0.170 C 
ENDROOT
BRANCH   1   3
ATOM      2  C   GLY A  1        0.814  -0.502   1.170  0.00  0.00    +0.510 C 
ATOM      3  N   HIS A  2        0.971  -1.826   1.366  0.00  0.00    -0.700 N 
ATOM      4  H   HIS A  2        0.562  -2.459   0.755  0.00  0.00    +0.380 HD
ATOM      5  O   GLY A  1        1.325   0.289   1.934  0.00  0.00    -0.530 OA
BRANCH   2   6
ATOM      6  CA  GLY A  1        0.002  -0.004   0.002  0.00  0.00    +0.190 C 
BRANCH   6   7
ATOM      7  N   GLY A  1       -0.018   1.465   0.010  0.00  0.00    -0.830 NA
ATOM      8  H1  GLY A  1       -0.556   1.823  -0.764  0.00  0.00    +0.340 HD
ATOM      9  H2  GLY A  1        0.919   1.839   0.003  0.00  0.00    +0.350 HD
ENDBRANCH   6   7
ENDBRANCH   2   6
ENDBRANCH   1   3
BRANCH   1  10
ATOM     10  C   HIS A  2        3.219  -2.339   2.124  0.00  0.00    +0.490 C 
ATOM     11  OXT HIS A  2        4.050  -2.713   2.933  0.00  0.00    -0.690 OA
ATOM     12  O   HIS A  2        3.567  -1.988   1.010  0.00  0.00    -0.680 OA
ENDBRANCH   1  10
BRANCH   1  13
ATOM     13  CB  HIS A  2        1.302  -3.721   2.876  0.00  0.00    +0.140 C 
BRANCH  13  14
ATOM     14  CG  HIS A  2       -0.121  -3.673   3.371  0.00  0.00    +0.000 A 
ATOM     15  CD2 HIS A  2       -0.525  -3.396   4.625  0.00  0.00    +0.140 A 
ATOM     16  NE2 HIS A  2       -1.865  -3.454   4.651  0.00  0.00    -0.490 NA
ATOM     17  CE1 HIS A  2       -2.306  -3.757   3.460  0.00  0.00    +0.370 A 
ATOM     18  ND1 HIS A  2       -1.250  -3.896   2.630  0.00  0.00    -0.570 N 
ATOM     19  HD1 HIS A  2       -1.285  -4.119   1.687  0.00  0.00    +0.410 HD
ENDBRANCH  13  14
ENDBRANCH   1  13
TORSDOF 6
ENDMDL
MODEL       68
REMARK  Name = ZINC000003116893
REMARK                            x       y       z     vdW  Elec       q    Type
REMARK                         _______ _______ _______ _____ _____    ______ ____
ROOT
ATOM      1  C   LIG    1       -1.254  -0.752   0.010  0.00  0.00    -0.380 A 
ATOM      2  C   LIG    1       -1.259  -2.138   0.008  0.00  0.00    +0.350 A 
ATOM      3  N   LIG    1       -2.445  -2.797   0.016  0.00  0.00    -0.390 N 
ATOM      4  C   LIG    1       -3.614  -2.139   0.025  0.00  0.00    +0.650 A 
ATOM      5  N   LIG    1       -3.681  -0.796   0.027  0.00  0.00    -0.680 NA
ATOM      6  O   LIG    1       -4.648  -2.778   0.031  0.00  0.00    -0.590 OA
ATOM      7  C   LIG    1       -2.553  -0.055   0.026  0.00  0.00    +0.530 A 
ATOM      8  O   LIG    1       -2.606   1.160   0.028  0.00  0.00    -0.580 OA
ENDROOT
BRANCH   3   9
ATOM      9  N   LIG    1       -2.449  -4.163   0.015  0.00  0.00    -0.300 N 
ATOM     10  C   LIG    1       -1.080  -4.694   0.092  0.00  0.00    +0.140 C 
ATOM     11  C   LIG    1       -1.134  -6.223   0.148  0.00  0.00    +0.250 C 
ATOM     12  O   LIG    1       -1.841  -6.713  -0.994  0.00  0.00    -0.390 OA
ATOM     13  C   LIG    1       -3.178  -6.216  -1.101  0.00  0.00    +0.240 C 
ATOM     14  C   LIG    1       -3.145  -4.687  -1.170  0.00  0.00    +0.150 C 
ENDBRANCH   3   9
BRANCH   1  16
ATOM     15  C   LIG    1       -0.018   1.503   0.010  0.00  0.00    +0.070 C 
ATOM     16  C   LIG    1        0.002  -0.004   0.002  0.00  0.00    +0.420 C 
ATOM     17  O   LIG    1        1.061  -0.597  -0.011  0.00  0.00    -0.520 OA
ENDBRANCH   1  16
TORSDOF 2
ENDMDL
MODEL       69
REMARK  Name = ZINC000100655752
REMARK                            x       y       z     vdW  Elec       q    Type
REMARK                         _______ _______ _______ _____ _____    ______ ____
ROOT
ATOM      1  CA  ALA A  2        0.712  -1.094  -3.598  0.00  0.00    +0.230 C 
ATOM      2  CB  ALA A  2        1.284  -2.490  -3.346  0.00  0.00    +0.050 C 
ENDROOT
BRANCH   1   5
ATOM      3  N   ALA A  3        0.688  -0.476  -1.203  0.00  0.00    -0.690 N 
ATOM      4  H   ALA A  3        1.632  -0.695  -1.170  0.00  0.00    +0.410 HD
ATOM      5  C   ALA A  2        0.006  -0.608  -2.358  0.00  0.00    +0.500 C 
ATOM      6  O   ALA A  2       -1.175  -0.336  -2.400  0.00  0.00    -0.560 OA
BRANCH   3   8
ATOM      7  CB  ALA A  3       -0.019   1.526   0.010  0.00  0.00    +0.030 C 
ATOM      8  CA  ALA A  3        0.002  -0.004   0.002  0.00  0.00    +0.150 C 
BRANCH   8   9
ATOM      9  C   ALA A  3        0.731  -0.503   1.223  0.00  0.00    +0.500 C 
ATOM     10  OXT ALA A  3        1.824  -1.032   1.107  0.00  0.00    -0.690 OA
ATOM     11  O   ALA A  3        0.228  -0.379   2.326  0.00  0.00    -0.690 OA
ENDBRANCH   8   9
ENDBRANCH   3   8
ENDBRANCH   1   5
BRANCH   1  12
ATOM     12  N   ALA A  2       -0.240  -1.150  -4.711  0.00  0.00    -0.700 N 
ATOM     13  H   ALA A  2       -1.188  -1.254  -4.534  0.00  0.00    +0.410 HD
ATOM     14  C   ALA A  1        0.202  -1.058  -5.981  0.00  0.00    +0.480 C 
ATOM     15  O   ALA A  1        1.388  -0.929  -6.202  0.00  0.00    -0.550 OA
BRANCH  14  16
ATOM     16  CA  ALA A  1       -0.776  -1.116  -7.126  0.00  0.00    +0.170 C 
ATOM     17  CB  ALA A  1       -1.152  -2.573  -7.403  0.00  0.00    +0.070 C 
BRANCH  16  18
ATOM     18  N   ALA A  1       -0.161  -0.532  -8.325  0.00  0.00    -0.820 NA
ATOM     19  H1  ALA A  1        0.672  -1.037  -8.587  0.00  0.00    +0.350 HD
ATOM     20  H2  ALA A  1        0.037   0.448  -8.190  0.00  0.00    +0.350 HD
ENDBRANCH  16  18
ENDBRANCH  14  16
ENDBRANCH   1  12
TORSDOF 6
ENDMDL
MODEL       70
REMARK  Name = ZINC000095617094
REMARK                            x       y       z     vdW  Elec       q    Type
REMARK                         _______ _______ _______ _____ _____    ______ ____
ROOT
ATOM      1  C   LIG    1        0.561  -2.055  -1.192  0.00  0.00    -0.260 C 
ATOM      2  C   LIG    1        1.254  -2.671  -2.168  0.00  0.00    +0.220 C 
ATOM      3  O   LIG    1        1.990  -1.944  -3.036  0.00  0.00    -0.650 OA
ENDROOT
BRANCH   1   4
ATOM      4  C   LIG    1        0.526  -0.595  -1.131  0.00  0.00    +0.520 C 
ATOM      5  O   LIG    1        1.121   0.063  -1.963  0.00  0.00    -0.520 OA
BRANCH   4   7
ATOM      6  C   LIG    1       -0.160   1.452  -0.154  0.00  0.00    +0.220 C 
ATOM      7  O   LIG    1       -0.168   0.023  -0.152  0.00  0.00    -0.370 OA
ENDBRANCH   4   7
ENDBRANCH   1   4
BRANCH   1   8
ATOM      8  O   LIG    1       -0.106  -2.792  -0.260  0.00  0.00    -0.500 OA
ATOM      9  H   LIG    1       -0.086  -3.745  -0.424  0.00  0.00    +0.350 HD
ENDBRANCH   1   8
BRANCH   2  10
ATOM     10  C   LIG    1        1.207  -4.172  -2.292  0.00  0.00    +0.170 C 
BRANCH  10  11
ATOM     11  O   LIG    1        2.538  -4.692  -2.291  0.00  0.00    -0.550 OA
ATOM     12  H   LIG    1        3.090  -4.363  -3.014  0.00  0.00    +0.380 HD
ENDBRANCH  10  11
BRANCH  10  13
ATOM     13  C   LIG    1        0.511  -4.555  -3.600  0.00  0.00    +0.200 C 
BRANCH  13  14
ATOM     14  O   LIG    1       -0.820  -4.035  -3.601  0.00  0.00    -0.540 OA
ATOM     15  H   LIG    1       -1.371  -4.364  -2.878  0.00  0.00    +0.370 HD
ENDBRANCH  13  14
BRANCH  13  16
ATOM     16  C   LIG    1        0.464  -6.079  -3.726  0.00  0.00    +0.160 C 
BRANCH  16  17
ATOM     17  O   LIG    1       -0.079  -6.435  -4.999  0.00  0.00    -0.570 OA
ATOM     18  H   LIG    1       -0.139  -7.388  -5.148  0.00  0.00    +0.370 HD
ENDBRANCH  16  17
ENDBRANCH  13  16
ENDBRANCH  10  13
ENDBRANCH   2  10
TORSDOF 9
ENDMDL
MODEL       71
REMARK  Name = ZINC000095617096
REMARK                            x       y       z     vdW  Elec       q    Type
REMARK                         _______ _______ _______ _____ _____    ______ ____
ROOT
ATOM      1  C   LIG    1        2.427  -1.846  -2.178  0.00  0.00    -0.270 C 
ATOM      2  C   LIG    1        1.451  -2.773  -2.177  0.00  0.00    +0.220 C 
ATOM      3  O   LIG    1        0.156  -2.391  -2.202  0.00  0.00    -0.630 OA
ENDROOT
BRANCH   1   4
ATOM      4  C   LIG    1        2.087  -0.428  -2.069  0.00  0.00    +0.520 C 
ATOM      5  O   LIG    1        0.923  -0.087  -1.978  0.00  0.00    -0.520 OA
BRANCH   4   7
ATOM      6  C   LIG    1        2.661   1.868  -1.960  0.00  0.00    +0.220 C 
ATOM      7  O   LIG    1        3.065   0.502  -2.070  0.00  0.00    -0.370 OA
ENDBRANCH   4   7
ENDBRANCH   1   4
BRANCH   1   8
ATOM      8  O   LIG    1        3.731  -2.228  -2.281  0.00  0.00    -0.500 OA
ATOM      9  H   LIG    1        3.860  -3.187  -2.284  0.00  0.00    +0.350 HD
ENDBRANCH   1   8
BRANCH   2  10
ATOM     10  C   LIG    1        1.804  -4.238  -2.148  0.00  0.00    +0.180 C 
BRANCH  10  11
ATOM     11  O   LIG    1        1.117  -4.872  -1.068  0.00  0.00    -0.560 OA
ATOM     12  H   LIG    1        0.158  -4.746  -1.083  0.00  0.00    +0.380 HD
ENDBRANCH  10  11
BRANCH  10  13
ATOM     13  C   LIG    1        1.389  -4.889  -3.469  0.00  0.00    +0.200 C 
BRANCH  13  14
ATOM     14  O   LIG    1        0.001  -4.642  -3.706  0.00  0.00    -0.530 OA
ATOM     15  H   LIG    1       -0.583  -4.991  -3.020  0.00  0.00    +0.370 HD
ENDBRANCH  13  14
BRANCH  13  16
ATOM     16  C   LIG    1        1.632  -6.398  -3.393  0.00  0.00    +0.150 C 
BRANCH  16  17
ATOM     17  O   LIG    1        1.355  -6.990  -4.664  0.00  0.00    -0.570 OA
ATOM     18  H   LIG    1        1.488  -7.947  -4.689  0.00  0.00    +0.370 HD
ENDBRANCH  16  17
ENDBRANCH  13  16
ENDBRANCH  10  13
ENDBRANCH   2  10
TORSDOF 9
ENDMDL
MODEL       72
REMARK  Name = ZINC000039101904
REMARK                            x       y       z     vdW  Elec       q    Type
REMARK                         _______ _______ _______ _____ _____    ______ ____
ROOT
ATOM      1  N   LIG    1        0.688  -0.476  -1.203  0.00  0.00    -0.620 N 
ATOM      2  C   LIG    1        0.126  -0.740  -2.397  0.00  0.00    +0.660 C 
ATOM      3  N   LIG    1        1.019  -1.156  -3.302  0.00  0.00    -0.710 NA
ATOM      4  C   LIG    1        2.263  -1.206  -2.786  0.00  0.00    +0.480 C 
ATOM      5  O   LIG    1        3.279  -1.542  -3.355  0.00  0.00    -0.540 OA
ATOM      6  O   LIG    1       -1.061  -0.614  -2.627  0.00  0.00    -0.590 OA
ATOM      7  C   LIG    1        2.128  -0.750  -1.347  0.00  0.00    +0.210 C 
ENDROOT
BRANCH   7   8
ATOM      8  C   LIG    1        2.550  -1.845  -0.401  0.00  0.00    +0.550 C 
ATOM      9  O   LIG    1        1.711  -2.490   0.193  0.00  0.00    -0.540 OA
ATOM     10  N   LIG    1        3.858  -2.108  -0.215  0.00  0.00    -0.840 N 
ATOM     11  H   LIG    1        4.130  -2.813   0.394  0.00  0.00    +0.390 HD
ATOM     12  H   LIG    1        4.529  -1.592  -0.690  0.00  0.00    +0.410 HD
ENDBRANCH   7   8
BRANCH   1  14
ATOM     13  C   LIG    1       -0.019   1.526   0.010  0.00  0.00    -0.000 C 
ATOM     14  C   LIG    1        0.002  -0.004   0.002  0.00  0.00    +0.300 C 
ENDBRANCH   1  14
BRANCH   7  15
ATOM     15  N   LIG    1        2.918   0.467  -1.115  0.00  0.00    -0.480 NA
ATOM     16  H   LIG    1        2.581   1.230  -1.683  0.00  0.00    +0.340 HD
BRANCH  15  17
ATOM     17  O   LIG    1        4.340   0.223  -1.353  0.00  0.00    -0.240 OA
ATOM     18  C   LIG    1        5.169   1.368  -1.146  0.00  0.00    +0.210 C 
ENDBRANCH  15  17
ENDBRANCH   7  15
TORSDOF 4
ENDMDL
MODEL       73
REMARK  Name = ZINC000039101905
REMARK                            x       y       z     vdW  Elec       q    Type
REMARK                         _______ _______ _______ _____ _____    ______ ____
ROOT
ATOM      1  N   LIG    1        0.837  -0.415  -1.457  0.00  0.00    -0.620 N 
ATOM      2  C   LIG    1        0.615  -0.789  -2.730  0.00  0.00    +0.670 C 
ATOM      3  N   LIG    1        1.689  -1.353  -3.292  0.00  0.00    -0.710 NA
ATOM      4  C   LIG    1        2.729  -1.406  -2.436  0.00  0.00    +0.520 C 
ATOM      5  O   LIG    1        3.833  -1.858  -2.652  0.00  0.00    -0.540 OA
ATOM      6  O   LIG    1       -0.444  -0.630  -3.305  0.00  0.00    -0.600 OA
ATOM      7  C   LIG    1        2.232  -0.776  -1.150  0.00  0.00    +0.220 C 
ENDROOT
BRANCH   7   8
ATOM      8  C   LIG    1        3.042   0.449  -0.811  0.00  0.00    +0.500 C 
ATOM      9  O   LIG    1        2.492   1.522  -0.682  0.00  0.00    -0.550 OA
ATOM     10  N   LIG    1        4.377   0.351  -0.653  0.00  0.00    -0.840 N 
ATOM     11  H   LIG    1        4.898   1.140  -0.435  0.00  0.00    +0.390 HD
ATOM     12  H   LIG    1        4.816  -0.507  -0.757  0.00  0.00    +0.410 HD
ENDBRANCH   7   8
BRANCH   1  14
ATOM     13  C   LIG    1       -0.981  -0.838   0.123  0.00  0.00    -0.000 C 
ATOM     14  C   LIG    1       -0.119   0.230  -0.554  0.00  0.00    +0.280 C 
ENDBRANCH   1  14
BRANCH   7  15
ATOM     15  N   LIG    1        2.277  -1.748  -0.049  0.00  0.00    -0.480 NA
ATOM     16  H   LIG    1        1.866  -1.364   0.789  0.00  0.00    +0.330 HD
BRANCH  15  17
ATOM     17  O   LIG    1        3.647  -2.198   0.198  0.00  0.00    -0.230 OA
ATOM     18  C   LIG    1        3.764  -3.147   1.260  0.00  0.00    +0.210 C 
ENDBRANCH  15  17
ENDBRANCH   7  15
TORSDOF 4
ENDMDL
MODEL       74
REMARK  Name = ZINC000002575476
REMARK                            x       y       z     vdW  Elec       q    Type
REMARK                         _______ _______ _______ _____ _____    ______ ____
ROOT
ATOM      1  C   ILE A  1       -2.829  -2.579  -0.111  0.00  0.00    +0.480 C 
ATOM      2  N   GLY A  2       -3.486  -2.723   1.058  0.00  0.00    -0.710 N 
ATOM      3  H   GLY A  2       -3.048  -2.491   1.892  0.00  0.00    +0.410 HD
ATOM      4  O   ILE A  1       -3.377  -2.869  -1.153  0.00  0.00    -0.550 OA
ENDROOT
BRANCH   1   5
ATOM      5  CA  ILE A  1       -1.416  -2.058  -0.121  0.00  0.00    +0.180 C 
BRANCH   5   6
ATOM      6  N   ILE A  1       -0.766  -2.431  -1.385  0.00  0.00    -0.820 NA
ATOM      7  H1  ILE A  1       -1.260  -2.042  -2.174  0.00  0.00    +0.350 HD
ATOM      8  H2  ILE A  1       -0.684  -3.433  -1.467  0.00  0.00    +0.350 HD
ENDBRANCH   5   6
BRANCH   5   9
ATOM      9  CB  ILE A  1       -1.433  -0.534   0.013  0.00  0.00    -0.010 C 
ATOM     10  CG2 ILE A  1       -2.110  -0.145   1.329  0.00  0.00    +0.020 C 
BRANCH   9  12
ATOM     11  CD1 ILE A  1       -0.019   1.526   0.010  0.00  0.00    -0.010 C 
ATOM     12  CG1 ILE A  1        0.002  -0.004   0.002  0.00  0.00    +0.030 C 
ENDBRANCH   9  12
ENDBRANCH   5   9
ENDBRANCH   1   5
BRANCH   2  13
ATOM     13  CA  GLY A  2       -4.860  -3.230   1.068  0.00  0.00    +0.300 C 
BRANCH  13  14
ATOM     14  C   GLY A  2       -5.361  -3.296   2.488  0.00  0.00    +0.500 C 
ATOM     15  N   GLY A  3       -6.609  -3.736   2.743  0.00  0.00    -0.690 N 
ATOM     16  H   GLY A  3       -7.185  -4.010   2.013  0.00  0.00    +0.410 HD
ATOM     17  O   GLY A  2       -4.640  -2.953   3.401  0.00  0.00    -0.560 OA
BRANCH  15  18
ATOM     18  CA  GLY A  3       -7.096  -3.799   4.123  0.00  0.00    +0.190 C 
BRANCH  18  19
ATOM     19  C   GLY A  3       -8.509  -4.321   4.134  0.00  0.00    +0.490 C 
ATOM     20  OXT GLY A  3       -9.103  -4.451   5.191  0.00  0.00    -0.690 OA
ATOM     21  O   GLY A  3       -9.060  -4.612   3.086  0.00  0.00    -0.690 OA
ENDBRANCH  18  19
ENDBRANCH  15  18
ENDBRANCH  13  14
ENDBRANCH   2  13
TORSDOF 8
ENDMDL
MODEL       75
REMARK  Name = ZINC000014628470
REMARK                            x       y       z     vdW  Elec       q    Type
REMARK                         _______ _______ _______ _____ _____    ______ ____
ROOT
ATOM      1  C   LIG    1       -0.019   1.526   0.010  0.00  0.00    +0.070 C 
ATOM      2  C   LIG    1        0.002  -0.004   0.002  0.00  0.00    +0.120 C 
ATOM      3  O   LIG    1        0.734  -0.491  -1.144  0.00  0.00    -0.340 OA
ATOM      4  C   LIG    1        1.116  -1.842  -0.806  0.00  0.00    +0.420 C 
ATOM      5  C   LIG    1        1.531  -1.775   0.681  0.00  0.00    +0.180 C 
ATOM      6  C   LIG    1        0.779  -0.538   1.226  0.00  0.00    +0.120 C 
ENDROOT
BRANCH   4   7
ATOM      7  N   LIG    1        2.244  -2.276  -1.634  0.00  0.00    -0.540 N 
ATOM      8  C   LIG    1        2.151  -3.439  -2.353  0.00  0.00    +0.250 A 
ATOM      9  C   LIG    1        3.191  -3.838  -3.116  0.00  0.00    -0.100 A 
ATOM     10  C   LIG    1        4.362  -3.040  -3.156  0.00  0.00    +0.510 A 
ATOM     11  N   LIG    1        4.413  -1.903  -2.433  0.00  0.00    -0.680 NA
ATOM     12  O   LIG    1        5.313  -3.379  -3.837  0.00  0.00    -0.580 OA
ATOM     13  F   LIG    1        3.116  -4.981  -3.832  0.00  0.00    -0.140 F 
ATOM     14  C   LIG    1        3.360  -1.526  -1.685  0.00  0.00    +0.640 A 
ATOM     15  O   LIG    1        3.421  -0.498  -1.039  0.00  0.00    -0.570 OA
ENDBRANCH   4   7
BRANCH   5  16
ATOM     16  O   LIG    1        1.118  -2.957   1.370  0.00  0.00    -0.560 OA
ATOM     17  H   LIG    1        1.353  -2.968   2.308  0.00  0.00    +0.380 HD
ENDBRANCH   5  16
BRANCH   6  18
ATOM     18  O   LIG    1        1.704   0.442   1.699  0.00  0.00    -0.540 OA
ATOM     19  H   LIG    1        1.287   1.240   2.053  0.00  0.00    +0.370 HD
ENDBRANCH   6  18
TORSDOF 3
ENDMDL
MODEL       76
REMARK  Name = ZINC000000231552
REMARK                            x       y       z     vdW  Elec       q    Type
REMARK                         _______ _______ _______ _____ _____    ______ ____
ROOT
ATOM      1  O   LIG    1        0.009   0.058   0.844  0.00  0.00    -0.620 OA
ATOM      2  C   LIG    1        0.004   1.261   0.668  0.00  0.00    +0.640 A 
ATOM      3  N   LIG    1        0.558   2.068   1.591  0.00  0.00    -0.700 NA
ATOM      4  C   LIG    1        0.563   3.405   1.414  0.00  0.00    +0.510 A 
ATOM      5  C   LIG    1       -0.023   3.954   0.242  0.00  0.00    -0.020 A 
ATOM      6  C   LIG    1       -0.573   3.120  -0.670  0.00  0.00    +0.220 A 
ATOM      7  O   LIG    1        1.065   4.134   2.250  0.00  0.00    -0.590 OA
ATOM      8  N   LIG    1       -0.550   1.764  -0.450  0.00  0.00    -0.670 N 
ATOM      9  H   LIG    1       -0.944   1.164  -1.103  0.00  0.00    +0.390 HD
ENDROOT
BRANCH   5  10
ATOM     10  N   LIG    1       -0.030   5.345   0.033  0.00  0.00    -0.620 N 
BRANCH  10  11
ATOM     11  C   LIG    1        1.234   6.073  -0.097  0.00  0.00    +0.310 C 
BRANCH  11  12
ATOM     12  C   LIG    1        1.652   6.112  -1.568  0.00  0.00    +0.130 C 
BRANCH  12  13
ATOM     13  O   LIG    1        0.699   6.873  -2.314  0.00  0.00    -0.570 OA
ATOM     14  H   LIG    1        0.901   6.940  -3.257  0.00  0.00    +0.370 HD
ENDBRANCH  12  13
ENDBRANCH  11  12
ENDBRANCH  10  11
BRANCH  10  15
ATOM     15  C   LIG    1       -1.303   6.066  -0.055  0.00  0.00    +0.290 C 
BRANCH  15  16
ATOM     16  C   LIG    1       -1.789   6.417   1.352  0.00  0.00    +0.130 C 
BRANCH  16  17
ATOM     17  O   LIG    1       -0.876   7.335   1.957  0.00  0.00    -0.560 OA
ATOM     18  H   LIG    1       -1.121   7.601   2.853  0.00  0.00    +0.370 HD
ENDBRANCH  16  17
ENDBRANCH  15  16
ENDBRANCH  10  15
ENDBRANCH   5  10
TORSDOF 7
ENDMDL
MODEL       77
REMARK  Name = ZINC000014807401
REMARK                            x       y       z     vdW  Elec       q    Type
REMARK                         _______ _______ _______ _____ _____    ______ ____
ROOT
ATOM      1  C   LIG    1        0.625  -2.120  -1.198  0.00  0.00    -0.270 C 
ATOM      2  C   LIG    1        1.127  -2.606  -2.349  0.00  0.00    +0.220 C 
ATOM      3  O   LIG    1        1.794  -1.790  -3.193  0.00  0.00    -0.630 OA
ENDROOT
BRANCH   1   4
ATOM      4  C   LIG    1        0.664  -0.683  -0.934  0.00  0.00    +0.520 C 
ATOM      5  O   LIG    1        1.151   0.074  -1.753  0.00  0.00    -0.520 OA
BRANCH   4   7
ATOM      6  C   LIG    1        0.233   1.219   0.412  0.00  0.00    +0.220 C 
ATOM      7  O   LIG    1        0.161  -0.195   0.220  0.00  0.00    -0.370 OA
ENDBRANCH   4   7
ENDBRANCH   1   4
BRANCH   1   8
ATOM      8  O   LIG    1        0.079  -2.967  -0.281  0.00  0.00    -0.500 OA
ATOM      9  H   LIG    1        0.170  -3.903  -0.507  0.00  0.00    +0.360 HD
ENDBRANCH   1   8
BRANCH   2  10
ATOM     10  C   LIG    1        0.945  -4.062  -2.694  0.00  0.00    +0.180 C 
BRANCH  10  11
ATOM     11  O   LIG    1        2.223  -4.665  -2.903  0.00  0.00    -0.560 OA
ATOM     12  H   LIG    1        2.735  -4.264  -3.618  0.00  0.00    +0.380 HD
ENDBRANCH  10  11
BRANCH  10  13
ATOM     13  C   LIG    1        0.109  -4.182  -3.970  0.00  0.00    +0.200 C 
BRANCH  13  14
ATOM     14  O   LIG    1        0.721  -3.421  -5.014  0.00  0.00    -0.520 OA
ATOM     15  H   LIG    1        1.619  -3.705  -5.233  0.00  0.00    +0.360 HD
ENDBRANCH  13  14
BRANCH  13  16
ATOM     16  C   LIG    1        0.029  -5.651  -4.391  0.00  0.00    +0.150 C 
BRANCH  16  17
ATOM     17  O   LIG    1       -0.846  -5.778  -5.514  0.00  0.00    -0.570 OA
ATOM     18  H   LIG    1       -0.944  -6.685  -5.835  0.00  0.00    +0.370 HD
ENDBRANCH  16  17
ENDBRANCH  13  16
ENDBRANCH  10  13
ENDBRANCH   2  10
TORSDOF 9
ENDMDL
MODEL       78
REMARK  Name = ZINC000005919450
REMARK                            x       y       z     vdW  Elec       q    Type
REMARK                         _______ _______ _______ _____ _____    ______ ____
ROOT
ATOM      1  C   VAL A  1       -1.413  -2.041   0.005  0.00  0.00    +0.490 C 
ATOM      2  N   THR A  2       -1.212  -2.705  -1.150  0.00  0.00    -0.690 N 
ATOM      3  H   THR A  2       -1.081  -2.214  -1.976  0.00  0.00    +0.390 HD
ATOM      4  O   VAL A  1       -1.577  -2.655   1.037  0.00  0.00    -0.550 OA
ENDROOT
BRANCH   1   5
ATOM      5  CA  VAL A  1       -1.433  -0.534   0.013  0.00  0.00    +0.170 C 
BRANCH   5   7
ATOM      6  CG1 VAL A  1       -0.019   1.526   0.010  0.00  0.00    +0.040 C 
ATOM      7  CB  VAL A  1        0.002  -0.004   0.002  0.00  0.00    +0.000 C 
ATOM      8  CG2 VAL A  1        0.742  -0.511   1.242  0.00  0.00    +0.020 C 
ENDBRANCH   5   7
BRANCH   5   9
ATOM      9  N   VAL A  1       -2.121  -0.060   1.222  0.00  0.00    -0.820 NA
ATOM     10  H1  VAL A  1       -1.651  -0.382   2.054  0.00  0.00    +0.350 HD
ATOM     11  H2  VAL A  1       -3.090  -0.343   1.221  0.00  0.00    +0.340 HD
ENDBRANCH   5   9
ENDBRANCH   1   5
BRANCH   2  12
ATOM     12  CA  THR A  2       -1.192  -4.170  -1.159  0.00  0.00    +0.160 C 
BRANCH  12  13
ATOM     13  C   THR A  2        0.190  -4.656  -0.806  0.00  0.00    +0.490 C 
ATOM     14  OXT THR A  2        0.422  -5.852  -0.757  0.00  0.00    -0.680 OA
ATOM     15  O   THR A  2        1.077  -3.853  -0.571  0.00  0.00    -0.690 OA
ENDBRANCH  12  13
BRANCH  12  16
ATOM     16  CB  THR A  2       -1.572  -4.678  -2.551  0.00  0.00    +0.160 C 
ATOM     17  CG2 THR A  2       -2.975  -4.185  -2.908  0.00  0.00    -0.010 C 
BRANCH  16  18
ATOM     18  OG1 THR A  2       -1.552  -6.107  -2.559  0.00  0.00    -0.530 OA
ATOM     19  HG1 THR A  2       -1.784  -6.498  -3.412  0.00  0.00    +0.360 HD
ENDBRANCH  16  18
ENDBRANCH  12  16
ENDBRANCH   2  12
TORSDOF 7
ENDMDL
MODEL       79
REMARK  Name = ZINC000018059633
REMARK                            x       y       z     vdW  Elec       q    Type
REMARK                         _______ _______ _______ _____ _____    ______ ____
ROOT
ATOM      1  C   LIG    1        0.849  -2.021  -1.205  0.00  0.00    +0.200 C 
ATOM      2  C   LIG    1        1.690  -2.510  -2.393  0.00  0.00    +0.260 C 
ATOM      3  N   LIG    1        3.044  -1.953  -2.262  0.00  0.00    -0.720 N 
ATOM      4  H   LIG    1        3.489  -1.556  -3.028  0.00  0.00    +0.390 HD
ATOM      5  C   LIG    1        3.676  -2.002  -1.030  0.00  0.00    +0.390 A 
ATOM      6  C   LIG    1        2.933  -2.232   0.120  0.00  0.00    -0.170 A 
ATOM      7  C   LIG    1        3.588  -2.275   1.355  0.00  0.00    +0.510 A 
ATOM      8  N   LIG    1        4.926  -2.091   1.383  0.00  0.00    -0.710 NA
ATOM      9  C   LIG    1        5.610  -1.871   0.227  0.00  0.00    +0.580 A 
ATOM     10  O   LIG    1        2.963  -2.474   2.386  0.00  0.00    -0.630 OA
ATOM     11  N   LIG    1        5.000  -1.829  -0.938  0.00  0.00    -0.680 NA
ATOM     12  N   LIG    1        1.535  -2.419   0.035  0.00  0.00    -0.720 N 
ATOM     13  H   LIG    1        1.040  -2.801   0.776  0.00  0.00    +0.400 HD
ENDROOT
BRANCH   9  14
ATOM     14  N   LIG    1        6.969  -1.688   0.278  0.00  0.00    -0.840 N 
ATOM     15  H   LIG    1        7.468  -1.531  -0.538  0.00  0.00    +0.390 HD
ATOM     16  H   LIG    1        7.430  -1.717   1.131  0.00  0.00    +0.400 HD
ENDBRANCH   9  14
BRANCH   1  17
ATOM     17  C   LIG    1        0.718  -0.497  -1.257  0.00  0.00    +0.150 C 
BRANCH  17  19
ATOM     18  C   LIG    1       -0.019   1.526   0.010  0.00  0.00    +0.000 C 
ATOM     19  C   LIG    1        0.002  -0.004   0.002  0.00  0.00    +0.160 C 
BRANCH  19  20
ATOM     20  O   LIG    1        0.693  -0.477   1.160  0.00  0.00    -0.530 OA
ATOM     21  H   LIG    1        1.611  -0.180   1.219  0.00  0.00    +0.370 HD
ENDBRANCH  19  20
ENDBRANCH  17  19
BRANCH  17  22
ATOM     22  O   LIG    1        2.019   0.090  -1.326  0.00  0.00    -0.550 OA
ATOM     23  H   LIG    1        2.587  -0.122  -0.573  0.00  0.00    +0.380 HD
ENDBRANCH  17  22
ENDBRANCH   1  17
TORSDOF 5
ENDMDL
MODEL       80
REMARK  Name = ZINC000040471038
REMARK                            x       y       z     vdW  Elec       q    Type
REMARK                         _______ _______ _______ _____ _____    ______ ____
ROOT
ATOM      1  C   VAL A  1       -1.413  -2.041   0.005  0.00  0.00    +0.480 C 
ATOM      2  N   THR A  2       -1.212  -2.705  -1.150  0.00  0.00    -0.680 N 
ATOM      3  H   THR A  2       -1.081  -2.214  -1.976  0.00  0.00    +0.400 HD
ATOM      4  O   VAL A  1       -1.577  -2.655   1.037  0.00  0.00    -0.560 OA
ENDROOT
BRANCH   1   5
ATOM      5  CA  VAL A  1       -1.433  -0.534   0.013  0.00  0.00    +0.180 C 
BRANCH   5   7
ATOM      6  CG1 VAL A  1       -0.019   1.526   0.010  0.00  0.00    +0.030 C 
ATOM      7  CB  VAL A  1        0.002  -0.004   0.002  0.00  0.00    -0.010 C 
ATOM      8  CG2 VAL A  1        0.742  -0.511   1.242  0.00  0.00    +0.020 C 
ENDBRANCH   5   7
BRANCH   5   9
ATOM      9  N   VAL A  1       -2.121  -0.060   1.222  0.00  0.00    -0.820 NA
ATOM     10  H1  VAL A  1       -1.651  -0.382   2.054  0.00  0.00    +0.350 HD
ATOM     11  H2  VAL A  1       -3.090  -0.343   1.221  0.00  0.00    +0.350 HD
ENDBRANCH   5   9
ENDBRANCH   1   5
BRANCH   2  12
ATOM     12  CA  THR A  2       -1.192  -4.170  -1.159  0.00  0.00    +0.170 C 
BRANCH  12  13
ATOM     13  C   THR A  2       -2.602  -4.691  -1.272  0.00  0.00    +0.500 C 
ATOM     14  OXT THR A  2       -2.897  -5.763  -0.772  0.00  0.00    -0.700 OA
ATOM     15  O   THR A  2       -3.446  -4.040  -1.863  0.00  0.00    -0.680 OA
ENDBRANCH  12  13
BRANCH  12  16
ATOM     16  CB  THR A  2       -0.369  -4.662  -2.351  0.00  0.00    +0.170 C 
ATOM     17  CG2 THR A  2        1.062  -4.134  -2.236  0.00  0.00    -0.010 C 
BRANCH  16  18
ATOM     18  OG1 THR A  2       -0.957  -4.188  -3.564  0.00  0.00    -0.550 OA
ATOM     19  HG1 THR A  2       -0.486  -4.462  -4.362  0.00  0.00    +0.360 HD
ENDBRANCH  16  18
ENDBRANCH  12  16
ENDBRANCH   2  12
TORSDOF 7
ENDMDL
MODEL       81
REMARK  Name = ZINC000000481101
REMARK                            x       y       z     vdW  Elec       q    Type
REMARK                         _______ _______ _______ _____ _____    ______ ____
ROOT
ATOM      1  C   LIG    1       -4.739   0.230   0.049  0.00  0.00    -0.230 A 
ATOM      2  C   LIG    1       -5.961  -0.390   0.063  0.00  0.00    +0.370 A 
ATOM      3  N   LIG    1       -7.092   0.363   0.078  0.00  0.00    -0.530 N 
ATOM      4  C   LIG    1       -7.042   1.705   0.079  0.00  0.00    +0.700 A 
ATOM      5  N   LIG    1       -5.875   2.373   0.066  0.00  0.00    -0.660 N 
ATOM      6  H   LIG    1       -5.875   3.343   0.068  0.00  0.00    +0.430 HD
ATOM      7  O   LIG    1       -8.082   2.334   0.093  0.00  0.00    -0.560 OA
ATOM      8  C   LIG    1       -8.396  -0.304   0.093  0.00  0.00    +0.330 C 
ATOM      9  C   LIG    1       -4.705   1.701   0.056  0.00  0.00    +0.550 A 
ATOM     10  O   LIG    1       -3.645   2.298   0.044  0.00  0.00    -0.450 OA
ENDROOT
BRANCH   1  11
ATOM     11  C   LIG    1       -3.493  -0.556   0.032  0.00  0.00    +0.550 C 
ATOM     12  O   LIG    1       -3.540  -1.773   0.026  0.00  0.00    -0.560 OA
BRANCH  11  14
ATOM     13  C   LIG    1       -1.188  -0.631   0.010  0.00  0.00    +0.570 C 
ATOM     14  N   LIG    1       -2.303   0.071   0.024  0.00  0.00    -0.720 NA
ATOM     15  O   LIG    1       -1.240  -1.976   0.003  0.00  0.00    -0.650 OA
BRANCH  13  17
ATOM     16  C   LIG    1       -0.018   1.448   0.010  0.00  0.00    +0.230 C 
ATOM     17  O   LIG    1        0.002  -0.004   0.002  0.00  0.00    -0.350 OA
ENDBRANCH  13  17
ENDBRANCH  11  14
ENDBRANCH   1  11
TORSDOF 3
ENDMDL
MODEL       82
REMARK  Name = ZINC000000481101
REMARK                            x       y       z     vdW  Elec       q    Type
REMARK                         _______ _______ _______ _____ _____    ______ ____
ROOT
ATOM      1  C   LIG    1       -2.490  -4.075   0.004  0.00  0.00    -0.220 A 
ATOM      2  C   LIG    1       -3.702  -4.739   0.006  0.00  0.00    +0.350 A 
ATOM      3  N   LIG    1       -3.716  -6.097  -0.001  0.00  0.00    -0.530 N 
ATOM      4  C   LIG    1       -2.579  -6.810  -0.011  0.00  0.00    +0.700 A 
ATOM      5  N   LIG    1       -1.368  -6.226  -0.014  0.00  0.00    -0.660 N 
ATOM      6  H   LIG    1       -0.568  -6.774  -0.021  0.00  0.00    +0.420 HD
ATOM      7  O   LIG    1       -2.645  -8.024  -0.018  0.00  0.00    -0.560 OA
ATOM      8  C   LIG    1       -5.001  -6.800   0.001  0.00  0.00    +0.330 C 
ATOM      9  C   LIG    1       -1.258  -4.880  -0.012  0.00  0.00    +0.540 A 
ATOM     10  O   LIG    1       -0.166  -4.346  -0.015  0.00  0.00    -0.440 OA
ENDROOT
BRANCH   1  13
ATOM     11  C   LIG    1       -1.189  -0.631   0.010  0.00  0.00    +0.600 C 
ATOM     12  N   LIG    1       -1.241  -1.978   0.003  0.00  0.00    -0.710 NA
ATOM     13  C   LIG    1       -2.433  -2.606   0.011  0.00  0.00    +0.540 C 
ATOM     14  O   LIG    1       -3.462  -1.958   0.025  0.00  0.00    -0.590 OA
ATOM     15  O   LIG    1       -2.216   0.016   0.023  0.00  0.00    -0.620 OA
BRANCH  11  17
ATOM     16  C   LIG    1       -0.018   1.448   0.010  0.00  0.00    +0.220 C 
ATOM     17  O   LIG    1        0.002  -0.004   0.002  0.00  0.00    -0.370 OA
ENDBRANCH  11  17
ENDBRANCH   1  13
TORSDOF 2
ENDMDL
MODEL       83
REMARK  Name = ZINC000008672839
REMARK                            x       y       z     vdW  Elec       q    Type
REMARK                         _______ _______ _______ _____ _____    ______ ____
ROOT
ATOM      1  C   LIG    1       -0.018   1.461   0.010  0.00  0.00    +0.340 C 
ATOM      2  N   LIG    1        0.002  -0.004   0.002  0.00  0.00    -0.570 N 
ATOM      3  C   LIG    1        0.005  -0.663  -1.177  0.00  0.00    +0.580 A 
ATOM      4  C   LIG    1        0.025  -2.134  -1.152  0.00  0.00    -0.210 A 
ATOM      5  C   LIG    1        0.040  -2.773   0.093  0.00  0.00    +0.410 A 
ATOM      6  N   LIG    1        0.035  -2.014   1.231  0.00  0.00    -0.520 N 
ATOM      7  C   LIG    1        0.051  -2.674   2.539  0.00  0.00    +0.330 C 
ATOM      8  N   LIG    1        0.058  -4.131   0.151  0.00  0.00    -0.620 NA
ATOM      9  C   LIG    1        0.062  -4.835  -1.002  0.00  0.00    +0.480 A 
ATOM     10  C   LIG    1        0.047  -4.154  -2.242  0.00  0.00    +0.070 A 
ATOM     11  O   LIG    1        0.078  -6.053  -0.974  0.00  0.00    -0.580 OA
ATOM     12  N   LIG    1        0.029  -2.847  -2.282  0.00  0.00    -0.340 NA
ATOM     13  O   LIG    1       -0.007  -0.057  -2.231  0.00  0.00    -0.510 OA
ATOM     14  C   LIG    1        0.022  -0.672   1.167  0.00  0.00    +0.710 A 
ATOM     15  O   LIG    1        0.019  -0.038   2.204  0.00  0.00    -0.560 OA
ENDROOT
TORSDOF 0
ENDMDL
MODEL       84
REMARK  Name = ZINC000033327123
REMARK                            x       y       z     vdW  Elec       q    Type
REMARK                         _______ _______ _______ _____ _____    ______ ____
ROOT
ATOM      1  O   LIG    1        0.002  -0.004   0.002  0.00  0.00    -0.610 OA
ATOM      2  C   LIG    1       -0.014   1.212   0.009  0.00  0.00    +0.640 A 
ATOM      3  N   LIG    1       -1.194   1.859   0.029  0.00  0.00    -0.690 NA
ATOM      4  C   LIG    1       -1.230   3.207   0.037  0.00  0.00    +0.560 A 
ATOM      5  C   LIG    1       -0.015   3.934   0.024  0.00  0.00    -0.880 A 
ATOM      6  C   LIG    1        1.154   3.259   0.004  0.00  0.00    +0.450 A 
ATOM      7  O   LIG    1       -2.297   3.794   0.056  0.00  0.00    -0.580 OA
ATOM      8  N   LIG    1        1.147   1.891   0.001  0.00  0.00    -0.650 N 
ATOM      9  H   LIG    1        1.987   1.406  -0.013  0.00  0.00    +0.400 HD
ENDROOT
BRANCH   5  10
ATOM     10  S   LIG    1       -0.029   5.696   0.035  0.00  0.00    +2.740 S 
ATOM     11  O   LIG    1        1.330   6.107   0.102  0.00  0.00    -0.990 OA
ATOM     12  O   LIG    1       -1.006   6.084   0.990  0.00  0.00    -0.950 OA
BRANCH  10  13
ATOM     13  N   LIG    1       -0.595   6.191  -1.441  0.00  0.00    -1.010 NA
ATOM     14  C   LIG    1        0.228   6.452  -2.631  0.00  0.00    +0.250 C 
ATOM     15  C   LIG    1       -0.724   6.912  -3.754  0.00  0.00    +0.020 C 
ATOM     16  C   LIG    1       -1.961   7.428  -2.972  0.00  0.00    +0.020 C 
ATOM     17  C   LIG    1       -2.008   6.436  -1.780  0.00  0.00    +0.270 C 
ENDBRANCH  10  13
ENDBRANCH   5  10
TORSDOF 2
ENDMDL
MODEL       85
REMARK  Name = ZINC000005009568
REMARK                            x       y       z     vdW  Elec       q    Type
REMARK                         _______ _______ _______ _____ _____    ______ ____
ROOT
ATOM      1  N   LIG    1        2.407   1.043  -0.015  0.00  0.00    -0.700 N 
ATOM      2  H   LIG    1        2.242   0.087  -0.019  0.00  0.00    +0.420 HD
ENDROOT
BRANCH   1   3
ATOM      3  C   LIG    1        3.716   1.526  -0.025  0.00  0.00    +0.250 A 
ATOM      4  N   LIG    1        3.949   2.813  -0.015  0.00  0.00    -0.310 NA
ATOM      5  N   LIG    1        5.268   3.281  -0.025  0.00  0.00    -0.370 NA
ATOM      6  C   LIG    1        6.306   2.426  -0.044  0.00  0.00    +0.440 A 
ATOM      7  N   LIG    1        6.110   1.094  -0.055  0.00  0.00    -0.620 N 
ATOM      8  H   LIG    1        6.870   0.492  -0.069  0.00  0.00    +0.420 HD
ATOM      9  S   LIG    1        7.903   3.041  -0.056  0.00  0.00    -0.750 S 
ATOM     10  C   LIG    1        4.856   0.595  -0.041  0.00  0.00    +0.510 A 
ATOM     11  O   LIG    1        4.671  -0.607  -0.050  0.00  0.00    -0.540 OA
ENDBRANCH   1   3
BRANCH   1  12
ATOM     12  C   LIG    1        1.280   1.980   0.001  0.00  0.00    +0.310 C 
BRANCH  12  14
ATOM     13  O   LIG    1        0.002  -0.004   0.002  0.00  0.00    -0.540 OA
ATOM     14  C   LIG    1       -0.014   1.209   0.009  0.00  0.00    +0.510 C 
ATOM     15  N   LIG    1       -1.191   1.867   0.018  0.00  0.00    -0.720 N 
ATOM     16  H   LIG    1       -1.204   2.837   0.023  0.00  0.00    +0.410 HD
BRANCH  15  17
ATOM     17  C   LIG    1       -2.449   1.117   0.020  0.00  0.00    +0.280 C 
BRANCH  17  18
ATOM     18  C   LIG    1       -3.626   2.095   0.031  0.00  0.00    +0.170 C 
BRANCH  18  19
ATOM     19  O   LIG    1       -3.633   2.844  -1.186  0.00  0.00    -0.570 OA
ATOM     20  H   LIG    1       -4.354   3.486  -1.249  0.00  0.00    +0.380 HD
ENDBRANCH  18  19
ENDBRANCH  17  18
ENDBRANCH  15  17
ENDBRANCH  12  14
ENDBRANCH   1  12
TORSDOF 6
ENDMDL
MODEL       86
REMARK  Name = ZINC000002216764
REMARK                            x       y       z     vdW  Elec       q    Type
REMARK                         _______ _______ _______ _____ _____    ______ ____
ROOT
ATOM      1  C   LIG    1       -3.734   1.664   0.029  0.00  0.00    +0.200 C 
ATOM      2  C   LIG    1       -4.157   2.001  -1.425  0.00  0.00    -0.330 C 
ATOM      3  S   LIG    1       -5.960   2.291  -1.213  0.00  0.00    +2.390 S 
ATOM      4  C   LIG    1       -6.191   0.999   0.066  0.00  0.00    -0.340 C 
ATOM      5  O   LIG    1       -6.646   1.919  -2.401  0.00  0.00    -0.940 OA
ATOM      6  O   LIG    1       -6.173   3.573  -0.640  0.00  0.00    -0.940 OA
ATOM      7  C   LIG    1       -4.792   0.746   0.643  0.00  0.00    +0.210 C 
ENDROOT
BRANCH   1   8
ATOM      8  N   LIG    1       -2.433   0.981   0.019  0.00  0.00    -0.630 NA
ATOM      9  H   LIG    1       -2.361   0.351  -0.766  0.00  0.00    +0.360 HD
BRANCH   8  10
ATOM     10  C   LIG    1       -1.330   1.951   0.019  0.00  0.00    +0.090 C 
BRANCH  10  12
ATOM     11  O   LIG    1        0.002  -0.004   0.002  0.00  0.00    -0.680 OA
ATOM     12  C   LIG    1       -0.015   1.215   0.009  0.00  0.00    +0.490 C 
ATOM     13  O   LIG    1        1.033   1.839   0.002  0.00  0.00    -0.710 OA
ENDBRANCH  10  12
ENDBRANCH   8  10
ENDBRANCH   1   8
BRANCH   7  14
ATOM     14  O   LIG    1       -4.427  -0.613   0.396  0.00  0.00    -0.530 OA
ATOM     15  H   LIG    1       -5.014  -1.260   0.811  0.00  0.00    +0.370 HD
ENDBRANCH   7  14
TORSDOF 4
ENDMDL
MODEL       87
REMARK  Name = ZINC000101377162
REMARK                            x       y       z     vdW  Elec       q    Type
REMARK                         _______ _______ _______ _____ _____    ______ ____
ROOT
ATOM      1  C   LIG    1        0.680  -2.077   1.092  0.00  0.00    -0.140 C 
ATOM      2  C   LIG    1        1.303  -2.690   2.129  0.00  0.00    +0.160 A 
ATOM      3  N   LIG    1        1.921  -2.083   3.206  0.00  0.00    -0.550 NA
ATOM      4  C   LIG    1        2.424  -3.080   4.025  0.00  0.00    +0.410 A 
ATOM      5  N   LIG    1        3.083  -3.293   5.141  0.00  0.00    -0.350 NA
ATOM      6  N   LIG    1        3.224  -4.555   5.335  0.00  0.00    -0.260 NA
ATOM      7  C   LIG    1        2.670  -5.224   4.364  0.00  0.00    +0.150 A 
ATOM      8  C   LIG    1        2.621  -6.724   4.223  0.00  0.00    +0.190 C 
ATOM      9  N   LIG    1        2.139  -4.305   3.493  0.00  0.00    -0.560 N 
ATOM     10  C   LIG    1        1.454  -4.151   2.345  0.00  0.00    +0.550 A 
ATOM     11  O   LIG    1        1.039  -5.037   1.626  0.00  0.00    -0.460 OA
ENDROOT
BRANCH   1  12
ATOM     12  C   LIG    1        0.621  -0.614   1.034  0.00  0.00    +0.500 C 
ATOM     13  O   LIG    1        1.130   0.051   1.915  0.00  0.00    -0.500 OA
BRANCH  12  15
ATOM     14  C   LIG    1       -0.018   1.448   0.010  0.00  0.00    +0.230 C 
ATOM     15  O   LIG    1        0.002  -0.004   0.002  0.00  0.00    -0.370 OA
ENDBRANCH  12  15
ENDBRANCH   1  12
TORSDOF 2
ENDMDL
MODEL       88
REMARK  Name = ZINC000000001332
REMARK                            x       y       z     vdW  Elec       q    Type
REMARK                         _______ _______ _______ _____ _____    ______ ____
ROOT
ATOM      1  C   LIG    1       -0.019   1.526   0.010  0.00  0.00    +0.060 C 
ATOM      2  C   LIG    1        0.002  -0.004   0.002  0.00  0.00    +0.130 C 
ATOM      3  O   LIG    1       -1.342  -0.511   0.052  0.00  0.00    -0.370 OA
ATOM      4  C   LIG    1       -1.302  -1.734   0.819  0.00  0.00    +0.420 C 
ATOM      5  C   LIG    1       -0.315  -1.409   1.968  0.00  0.00    +0.160 C 
ATOM      6  C   LIG    1        0.739  -0.525   1.251  0.00  0.00    +0.120 C 
ENDROOT
BRANCH   4   7
ATOM      7  N   LIG    1       -2.630  -2.054   1.350  0.00  0.00    -0.550 N 
ATOM      8  C   LIG    1       -3.693  -1.241   1.053  0.00  0.00    +0.250 A 
ATOM      9  C   LIG    1       -4.917  -1.537   1.542  0.00  0.00    -0.110 A 
ATOM     10  C   LIG    1       -5.074  -2.687   2.356  0.00  0.00    +0.510 A 
ATOM     11  N   LIG    1       -4.003  -3.460   2.624  0.00  0.00    -0.680 NA
ATOM     12  O   LIG    1       -6.168  -2.974   2.809  0.00  0.00    -0.590 OA
ATOM     13  F   LIG    1       -5.976  -0.747   1.260  0.00  0.00    -0.140 F 
ATOM     14  C   LIG    1       -2.795  -3.145   2.119  0.00  0.00    +0.640 A 
ATOM     15  O   LIG    1       -1.839  -3.852   2.369  0.00  0.00    -0.570 OA
ENDBRANCH   4   7
BRANCH   5  16
ATOM     16  O   LIG    1        0.284  -2.602   2.479  0.00  0.00    -0.500 OA
ATOM     17  H   LIG    1        0.909  -2.450   3.201  0.00  0.00    +0.370 HD
ENDBRANCH   5  16
BRANCH   6  18
ATOM     18  O   LIG    1        1.877  -1.306   0.880  0.00  0.00    -0.540 OA
ATOM     19  H   LIG    1        2.568  -0.803   0.427  0.00  0.00    +0.380 HD
ENDBRANCH   6  18
TORSDOF 3
ENDMDL
MODEL       89
REMARK  Name = ZINC000002171295
REMARK                            x       y       z     vdW  Elec       q    Type
REMARK                         _______ _______ _______ _____ _____    ______ ____
ROOT
ATOM      1  O   LIG    1        0.002  -0.004   0.002  0.00  0.00    -0.610 OA
ATOM      2  C   LIG    1       -0.014   1.214   0.009  0.00  0.00    +0.510 A 
ATOM      3  C   LIG    1       -1.246   1.911   0.030  0.00  0.00    -0.190 A 
ATOM      4  C   LIG    1       -1.236   3.261   0.038  0.00  0.00    +0.160 A 
ATOM      5  N   LIG    1       -0.043   3.930   0.025  0.00  0.00    -0.660 N 
ATOM      6  H   LIG    1       -0.036   4.901   0.030  0.00  0.00    +0.390 HD
ATOM      7  C   LIG    1        1.121   3.256   0.004  0.00  0.00    +0.640 A 
ATOM      8  O   LIG    1        2.170   3.870  -0.008  0.00  0.00    -0.620 OA
ATOM      9  N   LIG    1        1.140   1.910   0.001  0.00  0.00    -0.700 NA
ENDROOT
BRANCH   4  10
ATOM     10  C   LIG    1       -2.534   4.028   0.061  0.00  0.00    +0.240 C 
BRANCH  10  11
ATOM     11  N   LIG    1       -2.639   4.774   1.322  0.00  0.00    -0.530 NA
ATOM     12  C   LIG    1       -2.288   3.923   2.468  0.00  0.00    +0.150 C 
ATOM     13  C   LIG    1       -2.353   4.754   3.753  0.00  0.00    +0.230 C 
ATOM     14  O   LIG    1       -3.659   5.323   3.881  0.00  0.00    -0.390 OA
ATOM     15  C   LIG    1       -4.034   6.158   2.782  0.00  0.00    +0.220 C 
ATOM     16  C   LIG    1       -3.985   5.341   1.488  0.00  0.00    +0.150 C 
ENDBRANCH  10  11
ENDBRANCH   4  10
TORSDOF 2
ENDMDL
MODEL       90
REMARK  Name = ZINC000001555631
REMARK                            x       y       z     vdW  Elec       q    Type
REMARK                         _______ _______ _______ _____ _____    ______ ____
ROOT
ATOM      1  C   LIG    1        0.002  -0.004   0.002  0.00  0.00    +0.500 A 
ATOM      2  C   LIG    1       -1.195  -0.739   0.004  0.00  0.00    -0.110 A 
ATOM      3  N   LIG    1       -2.511  -0.417   0.012  0.00  0.00    -0.470 NA
ATOM      4  C   LIG    1       -3.224  -1.506   0.010  0.00  0.00    +0.460 A 
ATOM      5  N   LIG    1       -2.407  -2.597  -0.001  0.00  0.00    -0.460 N 
ATOM      6  C   LIG    1       -1.113  -2.142  -0.005  0.00  0.00    +0.300 A 
ATOM      7  N   LIG    1        0.085  -2.718  -0.015  0.00  0.00    -0.540 NA
ATOM      8  C   LIG    1        1.181  -1.989  -0.016  0.00  0.00    +0.550 A 
ATOM      9  N   LIG    1        1.153  -0.668  -0.013  0.00  0.00    -0.600 NA
ENDROOT
BRANCH   1  10
ATOM     10  N   LIG    1       -0.017   1.380   0.010  0.00  0.00    -0.820 N 
ATOM     11  H   LIG    1       -0.863   1.853   0.016  0.00  0.00    +0.420 HD
ATOM     12  H   LIG    1        0.817   1.876   0.004  0.00  0.00    +0.410 HD
ENDBRANCH   1  10
BRANCH   5  13
ATOM     13  C   LIG    1       -2.833  -3.999  -0.007  0.00  0.00    +0.280 C 
BRANCH  13  14
ATOM     14  CA  LIG    1       -2.853  -4.532   1.427  0.00  0.00    +0.090 C 
BRANCH  14  15
ATOM     15  C   LIG    1       -3.172  -6.005   1.411  0.00  0.00    +0.510 C 
ATOM     16  OXT LIG    1       -4.247  -6.401   1.828  0.00  0.00    -0.680 OA
ATOM     17  O   LIG    1       -2.354  -6.801   0.980  0.00  0.00    -0.690 OA
ENDBRANCH  14  15
BRANCH  14  18
ATOM     18  N   LIG    1       -3.878  -3.818   2.200  0.00  0.00    -0.820 NA
ATOM     19  H1  LIG    1       -4.792  -3.947   1.794  0.00  0.00    +0.340 HD
ATOM     20  H2  LIG    1       -3.652  -2.838   2.281  0.00  0.00    +0.320 HD
ENDBRANCH  14  18
ENDBRANCH  13  14
ENDBRANCH   5  13
TORSDOF 5
ENDMDL
MODEL       91
REMARK  Name = ZINC000002083239
REMARK                            x       y       z     vdW  Elec       q    Type
REMARK                         _______ _______ _______ _____ _____    ______ ____
ROOT
ATOM      1  C   LIG    1        0.002  -0.004   0.002  0.00  0.00    +0.500 A 
ATOM      2  C   LIG    1       -1.195  -0.739   0.004  0.00  0.00    -0.120 A 
ATOM      3  N   LIG    1       -2.511  -0.417   0.012  0.00  0.00    -0.480 NA
ATOM      4  C   LIG    1       -3.224  -1.506   0.010  0.00  0.00    +0.470 A 
ATOM      5  N   LIG    1       -2.407  -2.597  -0.001  0.00  0.00    -0.450 N 
ATOM      6  C   LIG    1       -1.113  -2.142  -0.005  0.00  0.00    +0.320 A 
ATOM      7  N   LIG    1        0.085  -2.718  -0.015  0.00  0.00    -0.530 NA
ATOM      8  C   LIG    1        1.181  -1.989  -0.016  0.00  0.00    +0.550 A 
ATOM      9  N   LIG    1        1.153  -0.668  -0.013  0.00  0.00    -0.600 NA
ENDROOT
BRANCH   1  10
ATOM     10  N   LIG    1       -0.017   1.380   0.010  0.00  0.00    -0.830 N 
ATOM     11  H   LIG    1       -0.863   1.853   0.016  0.00  0.00    +0.410 HD
ATOM     12  H   LIG    1        0.817   1.876   0.004  0.00  0.00    +0.400 HD
ENDBRANCH   1  10
BRANCH   5  13
ATOM     13  C   LIG    1       -2.833  -3.999  -0.007  0.00  0.00    +0.320 C 
BRANCH  13  14
ATOM     14  CA  LIG    1       -2.853  -4.532   1.427  0.00  0.00    +0.090 C 
BRANCH  14  15
ATOM     15  C   LIG    1       -3.408  -5.934   1.434  0.00  0.00    +0.470 C 
ATOM     16  OXT LIG    1       -4.606  -6.114   1.566  0.00  0.00    -0.690 OA
ATOM     17  O   LIG    1       -2.658  -6.886   1.307  0.00  0.00    -0.690 OA
ENDBRANCH  14  15
BRANCH  14  18
ATOM     18  N   LIG    1       -1.486  -4.544   1.964  0.00  0.00    -0.820 NA
ATOM     19  H1  LIG    1       -0.884  -5.133   1.409  0.00  0.00    +0.350 HD
ATOM     20  H2  LIG    1       -1.480  -4.831   2.932  0.00  0.00    +0.330 HD
ENDBRANCH  14  18
ENDBRANCH  13  14
ENDBRANCH   5  13
TORSDOF 5
ENDMDL
MODEL       92
REMARK  Name = ZINC000021983574
REMARK                            x       y       z     vdW  Elec       q    Type
REMARK                         _______ _______ _______ _____ _____    ______ ____
ROOT
ATOM      1  C   LIG    1       -0.019   1.526   0.010  0.00  0.00    +0.070 C 
ATOM      2  C   LIG    1        0.002  -0.004   0.002  0.00  0.00    +0.110 C 
ATOM      3  O   LIG    1        0.734  -0.491  -1.144  0.00  0.00    -0.350 OA
ATOM      4  C   LIG    1        1.116  -1.842  -0.806  0.00  0.00    +0.440 C 
ATOM      5  C   LIG    1        1.531  -1.775   0.681  0.00  0.00    +0.190 C 
ATOM      6  C   LIG    1        0.779  -0.538   1.226  0.00  0.00    +0.120 C 
ENDROOT
BRANCH   4   7
ATOM      7  N   LIG    1       -0.020  -2.751  -0.980  0.00  0.00    -0.560 N 
ATOM      8  C   LIG    1       -1.214  -2.264  -1.444  0.00  0.00    +0.240 A 
ATOM      9  C   LIG    1       -2.261  -3.103  -1.605  0.00  0.00    -0.100 A 
ATOM     10  C   LIG    1       -2.099  -4.475  -1.288  0.00  0.00    +0.510 A 
ATOM     11  N   LIG    1       -0.907  -4.913  -0.834  0.00  0.00    -0.670 NA
ATOM     12  O   LIG    1       -3.027  -5.251  -1.425  0.00  0.00    -0.580 OA
ATOM     13  F   LIG    1       -3.445  -2.641  -2.062  0.00  0.00    -0.140 F 
ATOM     14  C   LIG    1        0.120  -4.057  -0.688  0.00  0.00    +0.650 A 
ATOM     15  O   LIG    1        1.189  -4.467  -0.278  0.00  0.00    -0.600 OA
ENDBRANCH   4   7
BRANCH   5  16
ATOM     16  O   LIG    1        2.944  -1.599   0.798  0.00  0.00    -0.530 OA
ATOM     17  H   LIG    1        3.260  -1.551   1.711  0.00  0.00    +0.380 HD
ENDBRANCH   5  16
BRANCH   6  18
ATOM     18  O   LIG    1        1.704   0.442   1.699  0.00  0.00    -0.540 OA
ATOM     19  H   LIG    1        1.287   1.240   2.053  0.00  0.00    +0.380 HD
ENDBRANCH   6  18
TORSDOF 3
ENDMDL
MODEL       93
REMARK  Name = ZINC000049732560
REMARK                            x       y       z     vdW  Elec       q    Type
REMARK                         _______ _______ _______ _____ _____    ______ ____
ROOT
ATOM      1  O   LIG    1        0.002  -0.004   0.002  0.00  0.00    -0.610 OA
ATOM      2  C   LIG    1       -0.014   1.211   0.009  0.00  0.00    +0.660 C 
ATOM      3  N   LIG    1       -1.137   1.940   0.029  0.00  0.00    -0.720 NA
ATOM      4  C   LIG    1       -0.870   3.262   0.033  0.00  0.00    +0.510 C 
ATOM      5  C   LIG    1        0.638   3.373   0.011  0.00  0.00    +0.060 C 
ATOM      6  C   LIG    1        1.097   4.090  -1.251  0.00  0.00    +0.100 C 
ATOM      7  C   LIG    1        2.611   3.938  -1.420  0.00  0.00    -0.340 C 
ATOM      8  S   LIG    1        3.445   4.744  -0.022  0.00  0.00    +2.410 S 
ATOM      9  C   LIG    1        2.652   3.923   1.390  0.00  0.00    -0.340 C 
ATOM     10  O   LIG    1        3.088   6.120  -0.011  0.00  0.00    -0.940 OA
ATOM     11  O   LIG    1        4.820   4.383  -0.044  0.00  0.00    -0.950 OA
ATOM     12  C   LIG    1        1.133   4.077   1.267  0.00  0.00    +0.090 C 
ATOM     13  O   LIG    1       -1.672   4.172   0.050  0.00  0.00    -0.550 OA
ATOM     14  N   LIG    1        1.094   1.975   0.002  0.00  0.00    -0.770 N 
ATOM     15  H   LIG    1        2.013   1.664  -0.011  0.00  0.00    +0.390 HD
ENDROOT
TORSDOF 0
ENDMDL
MODEL       94
REMARK  Name = ZINC000002505891
REMARK                            x       y       z     vdW  Elec       q    Type
REMARK                         _______ _______ _______ _____ _____    ______ ____
ROOT
ATOM      1  C   LIG    1       -3.563  -0.089  -1.049  0.00  0.00    +0.160 C 
ATOM      2  C   LIG    1       -4.147  -1.506  -1.226  0.00  0.00    -0.220 C 
ATOM      3  S   LIG    1       -5.781  -1.181  -2.004  0.00  0.00    +2.360 S 
ATOM      4  C   LIG    1       -5.181   0.254  -2.985  0.00  0.00    -0.340 C 
ATOM      5  O   LIG    1       -6.704  -0.739  -1.018  0.00  0.00    -0.940 OA
ATOM      6  O   LIG    1       -6.122  -2.251  -2.874  0.00  0.00    -0.940 OA
ATOM      7  C   LIG    1       -4.149   0.903  -2.046  0.00  0.00    +0.190 C 
ENDROOT
BRANCH   1   8
ATOM      8  N   LIG    1       -2.107  -0.147  -1.234  0.00  0.00    -0.630 NA
ATOM      9  H   LIG    1       -1.751   0.731  -1.580  0.00  0.00    +0.340 HD
BRANCH   8  10
ATOM     10  CA  LIG    1       -1.433  -0.534   0.013  0.00  0.00    +0.050 C 
BRANCH  10  11
ATOM     11  C   LIG    1       -1.414  -2.036   0.129  0.00  0.00    +0.500 C 
ATOM     12  OXT LIG    1       -1.746  -2.725  -0.821  0.00  0.00    -0.670 OA
ATOM     13  O   LIG    1       -1.065  -2.563   1.171  0.00  0.00    -0.710 OA
ENDBRANCH  10  11
BRANCH  10  15
ATOM     14  C   LIG    1       -0.019   1.526   0.010  0.00  0.00    +0.000 C 
ATOM     15  C   LIG    1        0.002  -0.004   0.002  0.00  0.00    +0.020 C 
ENDBRANCH  10  15
ENDBRANCH   8  10
ENDBRANCH   1   8
BRANCH   7  16
ATOM     16  O   LIG    1       -3.087   1.449  -2.831  0.00  0.00    -0.540 OA
ATOM     17  H   LIG    1       -3.368   2.140  -3.446  0.00  0.00    +0.380 HD
ENDBRANCH   7  16
TORSDOF 5
ENDMDL
MODEL       95
REMARK  Name = ZINC000048546611
REMARK                            x       y       z     vdW  Elec       q    Type
REMARK                         _______ _______ _______ _____ _____    ______ ____
ROOT
ATOM      1  C   LIG    1        0.204   1.455   0.005  0.00  0.00    +0.340 C 
ATOM      2  N   LIG    1        0.110  -0.007  -0.001  0.00  0.00    -0.560 N 
ATOM      3  C   LIG    1        0.015  -0.663  -1.177  0.00  0.00    +0.570 A 
ATOM      4  C   LIG    1       -0.079  -2.131  -1.156  0.00  0.00    +0.120 A 
ATOM      5  C   LIG    1       -0.065  -2.769   0.071  0.00  0.00    -0.050 A 
ATOM      6  N   LIG    1        0.035  -2.015   1.226  0.00  0.00    -0.510 N 
ATOM      7  C   LIG    1        0.050  -2.684   2.530  0.00  0.00    +0.320 C 
ATOM      8  C   LIG    1       -0.157  -4.227   0.115  0.00  0.00    +0.190 A 
ATOM      9  C   LIG    1       -0.253  -4.908  -1.068  0.00  0.00    -0.240 A 
ATOM     10  C   LIG    1       -0.262  -4.202  -2.284  0.00  0.00    +0.490 A 
ATOM     11  O   LIG    1       -0.349  -4.819  -3.333  0.00  0.00    -0.610 OA
ATOM     12  N   LIG    1       -0.178  -2.860  -2.314  0.00  0.00    -0.580 NA
ATOM     13  O   LIG    1        0.007  -0.054  -2.231  0.00  0.00    -0.490 OA
ATOM     14  C   LIG    1        0.124  -0.675   1.165  0.00  0.00    +0.690 A 
ATOM     15  O   LIG    1        0.211  -0.044   2.201  0.00  0.00    -0.580 OA
ENDROOT
BRANCH   8  16
ATOM     16  O   LIG    1       -0.147  -4.887   1.297  0.00  0.00    -0.480 OA
ATOM     17  H   LIG    1       -0.212  -5.848   1.211  0.00  0.00    +0.390 HD
ENDBRANCH   8  16
TORSDOF 1
ENDMDL
MODEL       96
REMARK  Name = ZINC000201779749
REMARK                            x       y       z     vdW  Elec       q    Type
REMARK                         _______ _______ _______ _____ _____    ______ ____
ROOT
ATOM      1  C   LIG    1        2.437  -1.837  -2.169  0.00  0.00    -0.260 C 
ATOM      2  C   LIG    1        1.417  -2.714  -2.177  0.00  0.00    +0.220 C 
ATOM      3  O   LIG    1        0.143  -2.268  -2.236  0.00  0.00    -0.650 OA
ENDROOT
BRANCH   1   4
ATOM      4  C   LIG    1        2.168  -0.402  -2.088  0.00  0.00    +0.520 C 
ATOM      5  O   LIG    1        1.020  -0.001  -2.027  0.00  0.00    -0.520 OA
BRANCH   4   7
ATOM      6  C   LIG    1        2.854   1.864  -1.998  0.00  0.00    +0.220 C 
ATOM      7  O   LIG    1        3.191   0.477  -2.079  0.00  0.00    -0.370 OA
ENDBRANCH   4   7
ENDBRANCH   1   4
BRANCH   1   8
ATOM      8  O   LIG    1        3.722  -2.285  -2.236  0.00  0.00    -0.500 OA
ATOM      9  H   LIG    1        3.804  -3.249  -2.225  0.00  0.00    +0.350 HD
ENDBRANCH   1   8
BRANCH   2  10
ATOM     10  C   LIG    1        1.695  -4.194  -2.121  0.00  0.00    +0.170 C 
BRANCH  10  11
ATOM     11  O   LIG    1        0.960  -4.776  -1.043  0.00  0.00    -0.550 OA
ATOM     12  H   LIG    1        0.009  -4.605  -1.077  0.00  0.00    +0.380 HD
ENDBRANCH  10  11
BRANCH  10  13
ATOM     13  C   LIG    1        1.268  -4.844  -3.439  0.00  0.00    +0.200 C 
BRANCH  13  14
ATOM     14  O   LIG    1        2.003  -4.261  -4.517  0.00  0.00    -0.540 OA
ATOM     15  H   LIG    1        2.961  -4.369  -4.443  0.00  0.00    +0.370 HD
ENDBRANCH  13  14
BRANCH  13  16
ATOM     16  C   LIG    1        1.550  -6.346  -3.382  0.00  0.00    +0.160 C 
BRANCH  16  17
ATOM     17  O   LIG    1        1.046  -6.971  -4.564  0.00  0.00    -0.570 OA
ATOM     18  H   LIG    1        1.190  -7.927  -4.596  0.00  0.00    +0.370 HD
ENDBRANCH  16  17
ENDBRANCH  13  16
ENDBRANCH  10  13
ENDBRANCH   2  10
TORSDOF 9
ENDMDL
MODEL       97
REMARK  Name = ZINC000098210274
REMARK                            x       y       z     vdW  Elec       q    Type
REMARK                         _______ _______ _______ _____ _____    ______ ____
ROOT
ATOM      1  N   LIG    1        1.279  -2.677  -2.210  0.00  0.00    -0.300 N 
ATOM      2  C   LIG    1        2.300  -3.565  -2.181  0.00  0.00    +0.140 A 
ATOM      3  C   LIG    1        2.605  -3.831  -3.472  0.00  0.00    +0.000 A 
ATOM      4  N   LIG    1        1.766  -3.103  -4.218  0.00  0.00    -0.250 NA
ATOM      5  N   LIG    1        0.990  -2.435  -3.440  0.00  0.00    -0.090 NA
ENDROOT
BRANCH   1   6
ATOM      6  C   LIG    1        0.613  -2.097  -1.041  0.00  0.00    +0.340 C 
BRANCH   6   7
ATOM      7  C   LIG    1        0.652  -0.570  -1.138  0.00  0.00    +0.180 C 
BRANCH   7   9
ATOM      8  C   LIG    1       -0.017   1.425   0.010  0.00  0.00    +0.210 C 
ATOM      9  O   LIG    1        0.002  -0.004   0.002  0.00  0.00    -0.390 OA
ENDBRANCH   7   9
ENDBRANCH   6   7
ENDBRANCH   1   6
BRANCH   3  10
ATOM     10  C   LIG    1        3.677  -4.765  -3.972  0.00  0.00    +0.140 C 
BRANCH  10  11
ATOM     11  C   LIG    1        3.058  -5.793  -4.920  0.00  0.00    +0.140 C 
ATOM     12  N   LIG    1        2.584  -5.140  -6.153  0.00  0.00    -0.770 N 
ATOM     13  H   LIG    1        1.902  -4.454  -6.221  0.00  0.00    +0.400 HD
ATOM     14  C   LIG    1        3.281  -5.683  -7.168  0.00  0.00    +0.650 C 
ATOM     15  N   LIG    1        4.151  -6.610  -6.752  0.00  0.00    -0.730 NA
ATOM     16  O   LIG    1        3.135  -5.368  -8.333  0.00  0.00    -0.620 OA
ATOM     17  C   LIG    1        4.109  -6.768  -5.410  0.00  0.00    +0.490 C 
ATOM     18  O   LIG    1        4.776  -7.529  -4.742  0.00  0.00    -0.570 OA
ENDBRANCH  10  11
ENDBRANCH   3  10
TORSDOF 5
ENDMDL
MODEL       98
REMARK  Name = ZINC000098210272
REMARK                            x       y       z     vdW  Elec       q    Type
REMARK                         _______ _______ _______ _____ _____    ______ ____
ROOT
ATOM      1  C   LIG    1        1.143   4.095   1.264  0.00  0.00    +0.140 C 
ENDROOT
BRANCH   1   6
ATOM      2  O   LIG    1        0.002  -0.004   0.002  0.00  0.00    -0.620 OA
ATOM      3  C   LIG    1       -0.014   1.211   0.009  0.00  0.00    +0.650 C 
ATOM      4  N   LIG    1       -1.136   1.940   0.029  0.00  0.00    -0.720 NA
ATOM      5  C   LIG    1       -0.871   3.261   0.032  0.00  0.00    +0.490 C 
ATOM      6  C   LIG    1        0.640   3.376   0.011  0.00  0.00    +0.140 C 
ATOM      7  O   LIG    1       -1.674   4.169   0.049  0.00  0.00    -0.570 OA
ATOM      8  N   LIG    1        1.094   1.974   0.002  0.00  0.00    -0.770 N 
ATOM      9  H   LIG    1        2.012   1.662  -0.011  0.00  0.00    +0.400 HD
ENDBRANCH   1   6
BRANCH   1  10
ATOM     10  C   LIG    1        2.637   4.272   1.175  0.00  0.00    +0.000 A 
ATOM     11  C   LIG    1        3.323   5.434   1.283  0.00  0.00    +0.140 A 
ATOM     12  N   LIG    1        4.630   5.116   1.141  0.00  0.00    -0.300 N 
ATOM     13  N   LIG    1        4.718   3.845   0.959  0.00  0.00    -0.090 NA
ATOM     14  N   LIG    1        3.547   3.312   0.980  0.00  0.00    -0.250 NA
BRANCH  12  15
ATOM     15  C   LIG    1        5.753   6.056   1.186  0.00  0.00    +0.340 C 
BRANCH  15  16
ATOM     16  C   LIG    1        6.759   5.598   2.243  0.00  0.00    +0.200 C 
BRANCH  16  17
ATOM     17  O   LIG    1        7.854   6.515   2.287  0.00  0.00    -0.570 OA
ATOM     18  H   LIG    1        8.533   6.286   2.937  0.00  0.00    +0.390 HD
ENDBRANCH  16  17
ENDBRANCH  15  16
ENDBRANCH  12  15
ENDBRANCH   1  10
TORSDOF 5
ENDMDL
MODEL       99
REMARK  Name = ZINC000098210275
REMARK                            x       y       z     vdW  Elec       q    Type
REMARK                         _______ _______ _______ _____ _____    ______ ____
ROOT
ATOM      1  N   LIG    1        1.279  -2.677  -2.210  0.00  0.00    -0.300 N 
ATOM      2  C   LIG    1        2.300  -3.565  -2.181  0.00  0.00    +0.140 A 
ATOM      3  C   LIG    1        2.605  -3.831  -3.472  0.00  0.00    +0.000 A 
ATOM      4  N   LIG    1        1.766  -3.103  -4.218  0.00  0.00    -0.260 NA
ATOM      5  N   LIG    1        0.990  -2.435  -3.440  0.00  0.00    -0.090 NA
ENDROOT
BRANCH   1   6
ATOM      6  C   LIG    1        0.613  -2.097  -1.041  0.00  0.00    +0.340 C 
BRANCH   6   7
ATOM      7  C   LIG    1        0.652  -0.570  -1.138  0.00  0.00    +0.180 C 
BRANCH   7   9
ATOM      8  C   LIG    1       -0.017   1.425   0.010  0.00  0.00    +0.210 C 
ATOM      9  O   LIG    1        0.002  -0.004   0.002  0.00  0.00    -0.390 OA
ENDBRANCH   7   9
ENDBRANCH   6   7
ENDBRANCH   1   6
BRANCH   3  10
ATOM     10  C   LIG    1        3.677  -4.765  -3.972  0.00  0.00    +0.150 C 
BRANCH  10  11
ATOM     11  C   LIG    1        3.058  -5.793  -4.920  0.00  0.00    +0.150 C 
ATOM     12  N   LIG    1        2.149  -6.692  -4.188  0.00  0.00    -0.770 N 
ATOM     13  H   LIG    1        1.346  -6.438  -3.707  0.00  0.00    +0.390 HD
ATOM     14  C   LIG    1        2.650  -7.934  -4.317  0.00  0.00    +0.650 C 
ATOM     15  N   LIG    1        3.773  -7.958  -5.043  0.00  0.00    -0.720 NA
ATOM     16  O   LIG    1        2.138  -8.922  -3.829  0.00  0.00    -0.620 OA
ATOM     17  C   LIG    1        4.122  -6.724  -5.467  0.00  0.00    +0.490 C 
ATOM     18  O   LIG    1        5.084  -6.425  -6.140  0.00  0.00    -0.560 OA
ENDBRANCH  10  11
ENDBRANCH   3  10
TORSDOF 5
ENDMDL
MODEL      100
REMARK  Name = ZINC000100005182
REMARK                            x       y       z     vdW  Elec       q    Type
REMARK                         _______ _______ _______ _____ _____    ______ ____
ROOT
ATOM      1  C   LIG    1        0.625  -2.120  -1.198  0.00  0.00    -0.270 C 
ATOM      2  C   LIG    1        1.127  -2.606  -2.349  0.00  0.00    +0.220 C 
ATOM      3  O   LIG    1        1.794  -1.790  -3.193  0.00  0.00    -0.630 OA
ENDROOT
BRANCH   1   4
ATOM      4  C   LIG    1        0.664  -0.683  -0.934  0.00  0.00    +0.520 C 
ATOM      5  O   LIG    1        1.151   0.074  -1.753  0.00  0.00    -0.520 OA
BRANCH   4   7
ATOM      6  C   LIG    1        0.233   1.219   0.412  0.00  0.00    +0.220 C 
ATOM      7  O   LIG    1        0.161  -0.195   0.220  0.00  0.00    -0.370 OA
ENDBRANCH   4   7
ENDBRANCH   1   4
BRANCH   1   8
ATOM      8  O   LIG    1        0.079  -2.967  -0.281  0.00  0.00    -0.500 OA
ATOM      9  H   LIG    1        0.170  -3.903  -0.507  0.00  0.00    +0.360 HD
ENDBRANCH   1   8
BRANCH   2  10
ATOM     10  C   LIG    1        0.945  -4.062  -2.694  0.00  0.00    +0.180 C 
BRANCH  10  11
ATOM     11  O   LIG    1        2.223  -4.665  -2.903  0.00  0.00    -0.560 OA
ATOM     12  H   LIG    1        2.735  -4.264  -3.618  0.00  0.00    +0.380 HD
ENDBRANCH  10  11
BRANCH  10  13
ATOM     13  C   LIG    1        0.109  -4.182  -3.970  0.00  0.00    +0.200 C 
BRANCH  13  14
ATOM     14  O   LIG    1        0.721  -3.421  -5.014  0.00  0.00    -0.520 OA
ATOM     15  H   LIG    1        1.619  -3.705  -5.233  0.00  0.00    +0.360 HD
ENDBRANCH  13  14
BRANCH  13  16
ATOM     16  C   LIG    1        0.029  -5.651  -4.391  0.00  0.00    +0.150 C 
BRANCH  16  17
ATOM     17  O   LIG    1       -0.846  -5.778  -5.514  0.00  0.00    -0.570 OA
ATOM     18  H   LIG    1       -0.944  -6.685  -5.835  0.00  0.00    +0.370 HD
ENDBRANCH  16  17
ENDBRANCH  13  16
ENDBRANCH  10  13
ENDBRANCH   2  10
TORSDOF 9
ENDMDL
MODEL      101
REMARK  Name = ZINC000100034211
REMARK                            x       y       z     vdW  Elec       q    Type
REMARK                         _______ _______ _______ _____ _____    ______ ____
ROOT
ATOM      1  C   LIG    1       -0.018   1.461   0.010  0.00  0.00    +0.290 C 
ATOM      2  N   LIG    1        0.002  -0.004   0.002  0.00  0.00    -0.520 N 
ATOM      3  C   LIG    1        0.008  -0.794  -1.091  0.00  0.00    +0.610 A 
ATOM      4  N   LIG    1        0.028  -2.082  -0.698  0.00  0.00    -0.620 NA
ATOM      5  C   LIG    1        0.034  -2.127   0.673  0.00  0.00    +0.340 A 
ATOM      6  N   LIG    1        0.053  -3.160   1.582  0.00  0.00    -0.510 N 
ATOM      7  C   LIG    1        0.063  -4.546   1.110  0.00  0.00    +0.320 C 
ATOM      8  C   LIG    1        0.051  -2.901   2.903  0.00  0.00    +0.710 A 
ATOM      9  O   LIG    1        0.063  -3.827   3.692  0.00  0.00    -0.570 OA
ATOM     10  N   LIG    1        0.042  -1.639   3.367  0.00  0.00    -0.560 N 
ATOM     11  C   LIG    1        0.046  -1.397   4.812  0.00  0.00    +0.320 C 
ATOM     12  C   LIG    1        0.028  -0.593   2.515  0.00  0.00    +0.580 A 
ATOM     13  O   LIG    1        0.018   0.549   2.940  0.00  0.00    -0.560 OA
ATOM     14  O   LIG    1       -0.001  -0.406  -2.244  0.00  0.00    -0.620 OA
ATOM     15  C   LIG    1        0.024  -0.836   1.126  0.00  0.00    -0.220 A 
ENDROOT
TORSDOF 0
ENDMDL
MODEL      102
REMARK  Name = ZINC000008382902
REMARK                            x       y       z     vdW  Elec       q    Type
REMARK                         _______ _______ _______ _____ _____    ______ ____
ROOT
ATOM      1  C   LIG    1       -2.535  -0.362   0.020  0.00  0.00    +0.210 C 
ENDROOT
BRANCH   1   7
ATOM      2  N   LIG    1        0.002  -0.004   0.002  0.00  0.00    -0.340 N 
ATOM      3  C   LIG    1        1.106  -0.778  -0.007  0.00  0.00    +0.370 A 
ATOM      4  N   LIG    1        0.696  -2.064  -0.011  0.00  0.00    -0.360 NA
ATOM      5  N   LIG    1       -0.705  -2.055  -0.005  0.00  0.00    -0.300 NA
ATOM      6  S   LIG    1        2.728  -0.231  -0.011  0.00  0.00    -0.760 S 
ATOM      7  C   LIG    1       -1.100  -0.823   0.008  0.00  0.00    +0.170 A 
BRANCH   2   8
ATOM      8  N   LIG    1       -0.016   1.362   0.009  0.00  0.00    -0.600 N 
ATOM      9  H   LIG    1       -0.555   1.720  -0.765  0.00  0.00    +0.340 HD
ATOM     10  H   LIG    1        0.920   1.736   0.003  0.00  0.00    +0.390 HD
ENDBRANCH   2   8
ENDBRANCH   1   7
BRANCH   1  11
ATOM     11  C   LIG    1       -3.462  -1.579   0.013  0.00  0.00    +0.360 C 
ATOM     12  N   LIG    1       -3.412  -2.276   1.308  0.00  0.00    -0.030 NA
ATOM     13  N   LIG    1       -4.543  -2.244   1.800  0.00  0.00    -0.150 NA
ATOM     14  C   LIG    1       -5.445  -1.611   1.040  0.00  0.00    +0.350 C 
ATOM     15  S   LIG    1       -7.094  -1.403   1.452  0.00  0.00    -0.440 S 
ATOM     16  N   LIG    1       -4.872  -1.158  -0.097  0.00  0.00    -0.390 N 
BRANCH  16  17
ATOM     17  N   LIG    1       -5.463  -0.468  -1.116  0.00  0.00    -0.550 NA
ATOM     18  H   LIG    1       -4.987   0.406  -1.285  0.00  0.00    +0.360 HD
ATOM     19  H   LIG    1       -6.443  -0.314  -0.928  0.00  0.00    +0.390 HD
ENDBRANCH  16  17
ENDBRANCH   1  11
TORSDOF 4
ENDMDL
MODEL      103
REMARK  Name = ZINC000000315925
REMARK                            x       y       z     vdW  Elec       q    Type
REMARK                         _______ _______ _______ _____ _____    ______ ____
ROOT
ATOM      1  C   LIG    1       -2.075  -1.724  -2.203  0.00  0.00    +0.100 C 
ATOM      2  C   LIG    1       -1.088  -1.612  -1.070  0.00  0.00    +0.120 A 
ATOM      3  C   LIG    1       -1.286  -0.710  -0.081  0.00  0.00    -0.030 A 
ATOM      4  C   LIG    1       -0.340  -0.626   0.975  0.00  0.00    +0.510 A 
ATOM      5  N   LIG    1        0.732  -1.444   0.970  0.00  0.00    -0.700 NA
ATOM      6  C   LIG    1        0.904  -2.333  -0.025  0.00  0.00    +0.640 A 
ATOM      7  O   LIG    1        1.876  -3.063  -0.014  0.00  0.00    -0.620 OA
ATOM      8  O   LIG    1       -0.495   0.178   1.877  0.00  0.00    -0.590 OA
ATOM      9  N   LIG    1        0.015  -2.429  -1.031  0.00  0.00    -0.670 N 
ATOM     10  H   LIG    1        0.159  -3.077  -1.739  0.00  0.00    +0.390 HD
ENDROOT
BRANCH   3  11
ATOM     11  N   LIG    1       -2.413   0.133  -0.099  0.00  0.00    -0.620 N 
BRANCH  11  12
ATOM     12  C   LIG    1       -2.244   1.577  -0.278  0.00  0.00    +0.320 C 
BRANCH  12  13
ATOM     13  C   LIG    1       -2.159   1.899  -1.772  0.00  0.00    +0.130 C 
BRANCH  13  14
ATOM     14  O   LIG    1       -3.406   1.591  -2.397  0.00  0.00    -0.570 OA
ATOM     15  H   LIG    1       -3.424   1.771  -3.348  0.00  0.00    +0.360 HD
ENDBRANCH  13  14
ENDBRANCH  12  13
ENDBRANCH  11  12
BRANCH  11  16
ATOM     16  C   LIG    1       -3.754  -0.434   0.062  0.00  0.00    +0.290 C 
BRANCH  16  17
ATOM     17  C   LIG    1       -4.170  -0.350   1.532  0.00  0.00    +0.140 C 
BRANCH  17  18
ATOM     18  O   LIG    1       -4.290   1.021   1.916  0.00  0.00    -0.560 OA
ATOM     19  H   LIG    1       -4.551   1.149   2.838  0.00  0.00    +0.370 HD
ENDBRANCH  17  18
ENDBRANCH  16  17
ENDBRANCH  11  16
ENDBRANCH   3  11
TORSDOF 7
ENDMDL
MODEL      104
REMARK  Name = ZINC000100417967
REMARK                            x       y       z     vdW  Elec       q    Type
REMARK                         _______ _______ _______ _____ _____    ______ ____
ROOT
ATOM      1  C   LIG    1        0.680  -2.077   1.092  0.00  0.00    -0.140 C 
ATOM      2  C   LIG    1        1.389  -2.689   2.074  0.00  0.00    +0.180 A 
ATOM      3  N   LIG    1        1.627  -4.043   2.208  0.00  0.00    -0.590 NA
ATOM      4  C   LIG    1        2.391  -4.229   3.348  0.00  0.00    +0.410 A 
ATOM      5  N   LIG    1        2.975  -5.146   4.086  0.00  0.00    -0.350 NA
ATOM      6  N   LIG    1        3.566  -4.595   5.085  0.00  0.00    -0.260 NA
ATOM      7  C   LIG    1        3.400  -3.304   5.050  0.00  0.00    +0.150 A 
ATOM      8  C   LIG    1        3.937  -2.304   6.042  0.00  0.00    +0.190 C 
ATOM      9  N   LIG    1        2.643  -3.025   3.939  0.00  0.00    -0.550 N 
ATOM     10  C   LIG    1        2.073  -2.040   3.221  0.00  0.00    +0.520 A 
ATOM     11  O   LIG    1        2.113  -0.851   3.462  0.00  0.00    -0.400 OA
ENDROOT
BRANCH   1  12
ATOM     12  C   LIG    1        0.407  -0.639   1.172  0.00  0.00    +0.490 C 
ATOM     13  O   LIG    1        0.761  -0.007   2.149  0.00  0.00    -0.510 OA
BRANCH  12  15
ATOM     14  C   LIG    1       -0.474   1.407   0.311  0.00  0.00    +0.230 C 
ATOM     15  O   LIG    1       -0.237  -0.018   0.164  0.00  0.00    -0.370 OA
ENDBRANCH  12  15
ENDBRANCH   1  12
TORSDOF 2
ENDMDL
MODEL      105
REMARK  Name = ZINC000003813010
REMARK                            x       y       z     vdW  Elec       q    Type
REMARK                         _______ _______ _______ _____ _____    ______ ____
ROOT
ATOM      1  C1* LIG    1       -0.114   5.396   0.034  0.00  0.00    +0.390 C 
ATOM      2  C2* LIG    1       -0.798   5.918  -1.248  0.00  0.00    +0.000 C 
ATOM      3  C3* LIG    1       -1.617   7.136  -0.767  0.00  0.00    +0.160 C 
ATOM      4  C4* LIG    1       -1.331   7.206   0.749  0.00  0.00    +0.170 C 
ATOM      5  O4* LIG    1       -0.948   5.862   1.117  0.00  0.00    -0.340 OA
ENDROOT
BRANCH   1  10
ATOM      6  O   LIG    1        0.002  -0.004   0.002  0.00  0.00    -0.580 OA
ATOM      7  C   LIG    1       -0.014   1.214   0.009  0.00  0.00    +0.510 A 
ATOM      8  N   LIG    1       -1.188   1.878   0.029  0.00  0.00    -0.680 NA
ATOM      9  C   LIG    1       -1.206   3.224   0.037  0.00  0.00    +0.650 A 
ATOM     10  N   LIG    1       -0.062   3.932   0.025  0.00  0.00    -0.540 N 
ATOM     11  C   LIG    1        1.153   3.295   0.004  0.00  0.00    +0.240 A 
ATOM     12  O   LIG    1       -2.272   3.808   0.056  0.00  0.00    -0.590 OA
ATOM     13  C   LIG    1        1.199   1.946   0.001  0.00  0.00    -0.100 A 
ATOM     14  F   LIG    1        2.387   1.302  -0.019  0.00  0.00    -0.140 F 
ENDBRANCH   1  10
BRANCH   3  15
ATOM     15  O3* LIG    1       -1.173   8.328  -1.419  0.00  0.00    -0.560 OA
ATOM     16  H3* LIG    1       -1.275   8.312  -2.381  0.00  0.00    +0.380 HD
ENDBRANCH   3  15
BRANCH   4  17
ATOM     17  C5* LIG    1       -2.588   7.632   1.510  0.00  0.00    +0.210 C 
BRANCH  17  18
ATOM     18  O5* LIG    1       -2.273   7.803   2.893  0.00  0.00    -0.570 OA
ATOM     19  H5* LIG    1       -3.025   8.074   3.437  0.00  0.00    +0.380 HD
ENDBRANCH  17  18
ENDBRANCH   4  17
TORSDOF 4
ENDMDL
MODEL      106
REMARK  Name = ZINC000100713968
REMARK                            x       y       z     vdW  Elec       q    Type
REMARK                         _______ _______ _______ _____ _____    ______ ____
ROOT
ATOM      1  C   LIG    1       -0.018   1.461   0.010  0.00  0.00    +0.340 C 
ATOM      2  N   LIG    1        0.002  -0.004   0.002  0.00  0.00    -0.570 N 
ATOM      3  C   LIG    1        0.005  -0.663  -1.177  0.00  0.00    +0.580 A 
ATOM      4  C   LIG    1        0.026  -2.139  -1.151  0.00  0.00    -0.190 A 
ATOM      5  C   LIG    1        0.041  -2.777   0.104  0.00  0.00    +0.430 A 
ATOM      6  N   LIG    1        0.036  -2.013   1.235  0.00  0.00    -0.520 N 
ATOM      7  C   LIG    1        0.052  -2.667   2.546  0.00  0.00    +0.340 C 
ATOM      8  N   LIG    1        0.060  -4.132   0.183  0.00  0.00    -0.610 NA
ATOM      9  C   LIG    1        0.064  -4.859  -0.956  0.00  0.00    +0.510 A 
ATOM     10  CA  LIG    1        0.048  -4.160  -2.249  0.00  0.00    -0.190 A 
ATOM     11  O   LIG    1        0.081  -6.075  -0.912  0.00  0.00    -0.550 OA
ATOM     12  N   LIG    1        0.031  -2.837  -2.277  0.00  0.00    -0.270 NA
ATOM     13  O   LIG    1       -0.008  -0.057  -2.231  0.00  0.00    -0.500 OA
ATOM     14  C   LIG    1        0.022  -0.672   1.167  0.00  0.00    +0.710 A 
ATOM     15  O   LIG    1        0.018  -0.036   2.202  0.00  0.00    -0.550 OA
ENDROOT
BRANCH  10  16
ATOM     16  C   LIG    1        0.052  -4.925  -3.500  0.00  0.00    +0.520 C 
ATOM     17  O   LIG    1        0.038  -4.344  -4.565  0.00  0.00    -0.480 OA
ENDBRANCH  10  16
TORSDOF 1
ENDMDL
MODEL      107
REMARK  Name = ZINC000100713968
REMARK                            x       y       z     vdW  Elec       q    Type
REMARK                         _______ _______ _______ _____ _____    ______ ____
ROOT
ATOM      1  C   LIG    1       -0.018   1.461   0.010  0.00  0.00    +0.340 C 
ATOM      2  N   LIG    1        0.002  -0.004   0.002  0.00  0.00    -0.560 N 
ATOM      3  C   LIG    1        0.005  -0.661  -1.178  0.00  0.00    +0.590 A 
ATOM      4  C   LIG    1        0.025  -2.138  -1.156  0.00  0.00    -0.160 A 
ATOM      5  N   LIG    1        0.029  -2.845  -2.270  0.00  0.00    -0.290 NA
ATOM      6  CA  LIG    1        0.047  -4.173  -2.206  0.00  0.00    -0.150 A 
ATOM      7  C   LIG    1        0.062  -4.819  -0.952  0.00  0.00    +0.450 A 
ATOM      8  N   LIG    1        0.059  -4.106   0.165  0.00  0.00    -0.570 NA
ATOM      9  O   LIG    1        0.081  -6.170  -0.890  0.00  0.00    -0.600 OA
ATOM     10  C   LIG    1        0.040  -2.783   0.102  0.00  0.00    +0.420 A 
ATOM     11  N   LIG    1        0.036  -2.010   1.243  0.00  0.00    -0.530 N 
ATOM     12  C   LIG    1        0.053  -2.660   2.556  0.00  0.00    +0.340 C 
ATOM     13  O   LIG    1       -0.007  -0.052  -2.231  0.00  0.00    -0.490 OA
ATOM     14  C   LIG    1        0.022  -0.669   1.168  0.00  0.00    +0.710 A 
ATOM     15  O   LIG    1        0.018  -0.029   2.201  0.00  0.00    -0.550 OA
ENDROOT
BRANCH   6  16
ATOM     16  C   LIG    1        0.052  -4.969  -3.442  0.00  0.00    +0.510 C 
ATOM     17  O   LIG    1        0.068  -6.180  -3.384  0.00  0.00    -0.440 OA
ENDBRANCH   6  16
TORSDOF 1
ENDMDL
MODEL      108
REMARK  Name = ZINC000009212369
REMARK                            x       y       z     vdW  Elec       q    Type
REMARK                         _______ _______ _______ _____ _____    ______ ____
ROOT
ATOM      1  C   LIG    1       -0.019   1.526   0.010  0.00  0.00    +0.060 C 
ATOM      2  C   LIG    1        0.002  -0.004   0.002  0.00  0.00    +0.130 C 
ATOM      3  O   LIG    1       -1.342  -0.511   0.052  0.00  0.00    -0.370 OA
ATOM      4  C   LIG    1       -1.302  -1.734   0.819  0.00  0.00    +0.420 C 
ATOM      5  C   LIG    1       -0.315  -1.409   1.968  0.00  0.00    +0.160 C 
ATOM      6  C   LIG    1        0.739  -0.525   1.251  0.00  0.00    +0.120 C 
ENDROOT
BRANCH   4   7
ATOM      7  N   LIG    1       -2.630  -2.054   1.350  0.00  0.00    -0.540 N 
ATOM      8  C   LIG    1       -3.693  -1.241   1.053  0.00  0.00    +0.250 A 
ATOM      9  C   LIG    1       -4.917  -1.537   1.542  0.00  0.00    -0.110 A 
ATOM     10  C   LIG    1       -5.074  -2.687   2.356  0.00  0.00    +0.510 A 
ATOM     11  N   LIG    1       -4.003  -3.460   2.624  0.00  0.00    -0.680 NA
ATOM     12  O   LIG    1       -6.168  -2.974   2.809  0.00  0.00    -0.580 OA
ATOM     13  F   LIG    1       -5.976  -0.747   1.260  0.00  0.00    -0.140 F 
ATOM     14  C   LIG    1       -2.795  -3.145   2.119  0.00  0.00    +0.640 A 
ATOM     15  O   LIG    1       -1.839  -3.852   2.369  0.00  0.00    -0.570 OA
ENDBRANCH   4   7
BRANCH   5  16
ATOM     16  O   LIG    1        0.284  -2.602   2.479  0.00  0.00    -0.510 OA
ATOM     17  H   LIG    1        0.909  -2.450   3.201  0.00  0.00    +0.370 HD
ENDBRANCH   5  16
BRANCH   6  18
ATOM     18  O   LIG    1        1.135   0.562   2.090  0.00  0.00    -0.550 OA
ATOM     19  H   LIG    1        1.793   1.147   1.692  0.00  0.00    +0.380 HD
ENDBRANCH   6  18
TORSDOF 3
ENDMDL
MODEL      109
REMARK  Name = ZINC000000001457
REMARK                            x       y       z     vdW  Elec       q    Type
REMARK                         _______ _______ _______ _____ _____    ______ ____
ROOT
ATOM      1  C1* LIG    1       -0.114   5.396   0.034  0.00  0.00    +0.410 C 
ATOM      2  C2* LIG    1       -0.828   5.925  -1.235  0.00  0.00    +0.020 C 
ATOM      3  C3* LIG    1       -0.241   7.351  -1.367  0.00  0.00    +0.160 C 
ATOM      4  C4* LIG    1        1.069   7.297  -0.557  0.00  0.00    +0.180 C 
ATOM      5  O4* LIG    1        1.215   5.952  -0.066  0.00  0.00    -0.370 OA
ENDROOT
BRANCH   1  10
ATOM      6  O   LIG    1        0.002  -0.004   0.002  0.00  0.00    -0.580 OA
ATOM      7  C   LIG    1       -0.014   1.214   0.009  0.00  0.00    +0.510 A 
ATOM      8  N   LIG    1       -1.188   1.878   0.029  0.00  0.00    -0.680 NA
ATOM      9  C   LIG    1       -1.206   3.224   0.037  0.00  0.00    +0.650 A 
ATOM     10  N   LIG    1       -0.062   3.932   0.025  0.00  0.00    -0.550 N 
ATOM     11  C   LIG    1        1.153   3.295   0.004  0.00  0.00    +0.270 A 
ATOM     12  O   LIG    1       -2.272   3.808   0.056  0.00  0.00    -0.600 OA
ATOM     13  C   LIG    1        1.199   1.946   0.001  0.00  0.00    -0.110 A 
ATOM     14  F   LIG    1        2.387   1.302  -0.019  0.00  0.00    -0.140 F 
ENDBRANCH   1  10
BRANCH   3  15
ATOM     15  O3* LIG    1       -1.137   8.314  -0.810  0.00  0.00    -0.560 OA
ATOM     16  H3* LIG    1       -1.999   8.349  -1.247  0.00  0.00    +0.390 HD
ENDBRANCH   3  15
BRANCH   4  17
ATOM     17  C5* LIG    1        2.252   7.658  -1.457  0.00  0.00    +0.200 C 
BRANCH  17  18
ATOM     18  O5* LIG    1        3.446   7.719  -0.674  0.00  0.00    -0.560 OA
ATOM     19  H5* LIG    1        4.238   7.944  -1.180  0.00  0.00    +0.380 HD
ENDBRANCH  17  18
ENDBRANCH   4  17
TORSDOF 4
ENDMDL
MODEL      110
REMARK  Name = ZINC000000161548
REMARK                            x       y       z     vdW  Elec       q    Type
REMARK                         _______ _______ _______ _____ _____    ______ ____
ROOT
ATOM      1  C   LIG    1        0.163   1.212  -0.075  0.00  0.00    +0.340 C 
ATOM      2  N   LIG    1        0.105  -0.250  -0.094  0.00  0.00    -0.570 N 
ATOM      3  C   LIG    1        0.196  -0.915  -1.266  0.00  0.00    +0.560 A 
ATOM      4  C   LIG    1       -0.077  -2.354  -1.263  0.00  0.00    -0.330 A 
ATOM      5  C   LIG    1       -0.332  -3.002  -0.041  0.00  0.00    +0.460 A 
ATOM      6  N   LIG    1       -0.057  -2.287   1.089  0.00  0.00    -0.550 N 
ATOM      7  C   LIG    1        0.251  -2.893   2.385  0.00  0.00    +0.330 C 
ATOM      8  N   LIG    1       -0.778  -4.277  -0.082  0.00  0.00    -0.530 N 
ATOM      9  C   LIG    1       -0.604  -5.036  -1.190  0.00  0.00    +0.530 A 
ATOM     10  C   LIG    1       -0.258  -4.457  -2.412  0.00  0.00    -0.350 A 
ATOM     11  O   LIG    1       -0.782  -6.239  -1.117  0.00  0.00    -0.600 OA
ATOM     12  C   LIG    1       -1.512  -4.917   1.013  0.00  0.00    +0.300 C 
ATOM     13  C   LIG    1       -0.032  -3.096  -2.467  0.00  0.00    +0.360 A 
ATOM     14  O   LIG    1        0.228  -2.488  -3.648  0.00  0.00    -0.650 OA
ATOM     15  O   LIG    1        0.477  -0.329  -2.294  0.00  0.00    -0.470 OA
ATOM     16  C   LIG    1       -0.023  -0.934   1.050  0.00  0.00    +0.710 A 
ATOM     17  O   LIG    1       -0.115  -0.328   2.098  0.00  0.00    -0.550 OA
ENDROOT
TORSDOF 0
ENDMDL
MODEL      111
REMARK  Name = ZINC000001298528
REMARK                            x       y       z     vdW  Elec       q    Type
REMARK                         _______ _______ _______ _____ _____    ______ ____
ROOT
ATOM      1  C   LIG    1        1.280   1.980   0.001  0.00  0.00    +0.070 C 
ENDROOT
BRANCH   1   3
ATOM      2  O   LIG    1        0.002  -0.004   0.002  0.00  0.00    -0.530 OA
ATOM      3  C   LIG    1       -0.014   1.209   0.009  0.00  0.00    +0.520 C 
ATOM      4  N   LIG    1       -1.191   1.867   0.018  0.00  0.00    -0.620 N 
ATOM      5  C   LIG    1       -1.236   3.337   0.020  0.00  0.00    +0.250 C 
ATOM      6  C   LIG    1       -2.182   3.793  -1.096  0.00  0.00    +0.220 C 
ATOM      7  O   LIG    1       -3.435   3.120  -0.956  0.00  0.00    -0.380 OA
ATOM      8  C   LIG    1       -3.354   1.699  -1.091  0.00  0.00    +0.220 C 
ATOM      9  C   LIG    1       -2.468   1.135   0.020  0.00  0.00    +0.250 C 
ENDBRANCH   1   3
BRANCH   1  10
ATOM     10  C   LIG    1        2.457   1.002  -0.016  0.00  0.00    +0.160 C 
ATOM     11  N   LIG    1        2.525   0.251   1.250  0.00  0.00    -0.770 N 
ATOM     12  H   LIG    1        1.847  -0.344   1.608  0.00  0.00    +0.400 HD
ATOM     13  C   LIG    1        3.709   0.552   1.813  0.00  0.00    +0.650 C 
ATOM     14  N   LIG    1        4.424   1.407   1.072  0.00  0.00    -0.720 NA
ATOM     15  O   LIG    1        4.086   0.099   2.875  0.00  0.00    -0.620 OA
ATOM     16  C   LIG    1        3.773   1.751  -0.061  0.00  0.00    +0.490 C 
ATOM     17  O   LIG    1        4.162   2.503  -0.929  0.00  0.00    -0.570 OA
ENDBRANCH   1  10
TORSDOF 2
ENDMDL
MODEL      112
REMARK  Name = ZINC000001298530
REMARK                            x       y       z     vdW  Elec       q    Type
REMARK                         _______ _______ _______ _____ _____    ______ ____
ROOT
ATOM      1  C   LIG    1        1.280   1.980   0.001  0.00  0.00    +0.060 C 
ENDROOT
BRANCH   1   3
ATOM      2  O   LIG    1        0.002  -0.004   0.002  0.00  0.00    -0.530 OA
ATOM      3  C   LIG    1       -0.014   1.209   0.009  0.00  0.00    +0.520 C 
ATOM      4  N   LIG    1       -1.191   1.867   0.018  0.00  0.00    -0.620 N 
ATOM      5  C   LIG    1       -1.236   3.337   0.020  0.00  0.00    +0.250 C 
ATOM      6  C   LIG    1       -2.182   3.793  -1.096  0.00  0.00    +0.220 C 
ATOM      7  O   LIG    1       -3.435   3.120  -0.956  0.00  0.00    -0.380 OA
ATOM      8  C   LIG    1       -3.354   1.699  -1.091  0.00  0.00    +0.220 C 
ATOM      9  C   LIG    1       -2.468   1.135   0.020  0.00  0.00    +0.250 C 
ENDBRANCH   1   3
BRANCH   1  10
ATOM     10  C   LIG    1        2.457   1.002  -0.016  0.00  0.00    +0.160 C 
ATOM     11  N   LIG    1        2.500   0.265  -1.291  0.00  0.00    -0.770 N 
ATOM     12  H   LIG    1        1.817  -0.327  -1.642  0.00  0.00    +0.400 HD
ATOM     13  C   LIG    1        3.673   0.572  -1.873  0.00  0.00    +0.650 C 
ATOM     14  N   LIG    1        4.403   1.419  -1.137  0.00  0.00    -0.720 NA
ATOM     15  O   LIG    1        4.031   0.131  -2.947  0.00  0.00    -0.620 OA
ATOM     16  C   LIG    1        3.774   1.751   0.012  0.00  0.00    +0.490 C 
ATOM     17  O   LIG    1        4.178   2.495   0.879  0.00  0.00    -0.570 OA
ENDBRANCH   1  10
TORSDOF 2
ENDMDL
MODEL      113
REMARK  Name = ZINC000001541834
REMARK                            x       y       z     vdW  Elec       q    Type
REMARK                         _______ _______ _______ _____ _____    ______ ____
ROOT
ATOM      1  C   LEU A  1       -2.819  -2.590   0.013  0.00  0.00    +0.520 C 
ATOM      2  N   SER A  2       -3.370  -2.737   1.234  0.00  0.00    -0.690 N 
ATOM      3  H   SER A  2       -2.864  -2.501   2.026  0.00  0.00    +0.390 HD
ATOM      4  O   LEU A  1       -3.453  -2.886  -0.979  0.00  0.00    -0.540 OA
ENDROOT
BRANCH   1   5
ATOM      5  CA  LEU A  1       -1.416  -2.058  -0.121  0.00  0.00    +0.180 C 
BRANCH   5   6
ATOM      6  N   LEU A  1       -0.875  -2.427  -1.436  0.00  0.00    -0.830 NA
ATOM      7  H1  LEU A  1        0.087  -2.138  -1.526  0.00  0.00    +0.340 HD
ATOM      8  H2  LEU A  1       -1.439  -2.044  -2.180  0.00  0.00    +0.350 HD
ENDBRANCH   5   6
BRANCH   5   9
ATOM      9  CB  LEU A  1       -1.433  -0.534   0.013  0.00  0.00    +0.010 C 
BRANCH   9  11
ATOM     10  CD1 LEU A  1       -0.019   1.526   0.010  0.00  0.00    +0.010 C 
ATOM     11  CG  LEU A  1        0.002  -0.004   0.002  0.00  0.00    -0.030 C 
ATOM     12  CD2 LEU A  1        0.742  -0.511   1.242  0.00  0.00    +0.020 C 
ENDBRANCH   9  11
ENDBRANCH   5   9
ENDBRANCH   1   5
BRANCH   2  13
ATOM     13  CA  SER A  2       -4.735  -3.255   1.364  0.00  0.00    +0.160 C 
BRANCH  13  14
ATOM     14  C   SER A  2       -5.718  -2.122   1.215  0.00  0.00    +0.500 C 
ATOM     15  OXT SER A  2       -6.915  -2.340   1.292  0.00  0.00    -0.700 OA
ATOM     16  O   SER A  2       -5.316  -0.988   1.019  0.00  0.00    -0.680 OA
ENDBRANCH  13  14
BRANCH  13  17
ATOM     17  CB  SER A  2       -4.906  -3.902   2.739  0.00  0.00    +0.190 C 
BRANCH  17  18
ATOM     18  OG  SER A  2       -4.782  -2.904   3.754  0.00  0.00    -0.560 OA
ATOM     19  H   SER A  2       -4.880  -3.243   4.654  0.00  0.00    +0.370 HD
ENDBRANCH  17  18
ENDBRANCH  13  17
ENDBRANCH   2  13
TORSDOF 8
ENDMDL
MODEL      114
REMARK  Name = ZINC000001530141
REMARK                            x       y       z     vdW  Elec       q    Type
REMARK                         _______ _______ _______ _____ _____    ______ ____
ROOT
ATOM      1  C   LIG    1       -4.334   1.437   2.829  0.00  0.00    +0.120 C 
ENDROOT
BRANCH   1   2
ATOM      2  N   LIG    1       -2.953   1.936   2.770  0.00  0.00    -0.660 NA
ATOM      3  H   LIG    1       -2.435   1.663   3.591  0.00  0.00    +0.340 HD
BRANCH   2   4
ATOM      4  C   LIG    1       -2.280   1.478   1.546  0.00  0.00    +0.200 C 
BRANCH   4   5
ATOM      5  C   LIG    1       -0.848   2.016   1.520  0.00  0.00    -0.460 C 
BRANCH   5   7
ATOM      6  O   LIG    1        0.002  -0.004   0.002  0.00  0.00    -1.070 OA
ATOM      7  S   LIG    1       -0.018   1.450   0.010  0.00  0.00    +2.640 S 
ATOM      8  O   LIG    1       -0.752   1.947  -1.143  0.00  0.00    -1.060 OA
ATOM      9  O   LIG    1        1.341   1.970  -0.000  0.00  0.00    -1.070 OA
ENDBRANCH   5   7
ENDBRANCH   4   5
ENDBRANCH   2   4
ENDBRANCH   1   2
BRANCH   1  10
ATOM     10  C   LIG    1       -4.324  -0.093   2.818  0.00  0.00    +0.150 C 
BRANCH  10  11
ATOM     11  O   LIG    1       -3.595  -0.573   3.949  0.00  0.00    -0.570 OA
ATOM     12  H   LIG    1       -3.548  -1.537   4.006  0.00  0.00    +0.380 HD
ENDBRANCH  10  11
ENDBRANCH   1  10
BRANCH   1  13
ATOM     13  C   LIG    1       -5.114   1.952   1.618  0.00  0.00    +0.200 C 
BRANCH  13  14
ATOM     14  O   LIG    1       -5.025   3.377   1.564  0.00  0.00    -0.550 OA
ATOM     15  H   LIG    1       -5.498   3.772   0.819  0.00  0.00    +0.370 HD
ENDBRANCH  13  14
ENDBRANCH   1  13
BRANCH   1  16
ATOM     16  C   LIG    1       -5.000   1.934   4.114  0.00  0.00    +0.210 C 
BRANCH  16  17
ATOM     17  O   LIG    1       -6.343   1.449   4.172  0.00  0.00    -0.570 OA
ATOM     18  H   LIG    1       -6.827   1.725   4.962  0.00  0.00    +0.380 HD
ENDBRANCH  16  17
ENDBRANCH   1  16
TORSDOF 10
ENDMDL
MODEL      115
REMARK  Name = ZINC000001575556
REMARK                            x       y       z     vdW  Elec       q    Type
REMARK                         _______ _______ _______ _____ _____    ______ ____
ROOT
ATOM      1  CA  ASN A  2       -3.499  -1.070  -1.120  0.00  0.00    +0.180 C 
ENDROOT
BRANCH   1   3
ATOM      2  C   ALA A  1       -1.412  -0.526   0.013  0.00  0.00    +0.480 C 
ATOM      3  N   ASN A  2       -2.125  -0.563  -1.130  0.00  0.00    -0.680 N 
ATOM      4  H   ASN A  2       -1.728  -0.253  -1.960  0.00  0.00    +0.390 HD
ATOM      5  O   ALA A  1       -1.908  -0.912   1.050  0.00  0.00    -0.560 OA
BRANCH   2   7
ATOM      6  CB  ALA A  1       -0.019   1.526   0.010  0.00  0.00    +0.060 C 
ATOM      7  CA  ALA A  1        0.002  -0.004   0.002  0.00  0.00    +0.160 C 
BRANCH   7   8
ATOM      8  N   ALA A  1        0.713  -0.491   1.192  0.00  0.00    -0.820 NA
ATOM      9  H1  ALA A  1        0.796  -1.496   1.177  0.00  0.00    +0.340 HD
ATOM     10  H2  ALA A  1        0.259  -0.178   2.037  0.00  0.00    +0.350 HD
ENDBRANCH   7   8
ENDBRANCH   2   7
ENDBRANCH   1   3
BRANCH   1  11
ATOM     11  C   ASN A  2       -4.442   0.042  -0.737  0.00  0.00    +0.490 C 
ATOM     12  OXT ASN A  2       -5.479  -0.213  -0.149  0.00  0.00    -0.690 OA
ATOM     13  O   ASN A  2       -4.168   1.197  -1.016  0.00  0.00    -0.690 OA
ENDBRANCH   1  11
BRANCH   1  14
ATOM     14  CB  ASN A  2       -3.862  -1.589  -2.513  0.00  0.00    +0.070 C 
BRANCH  14  15
ATOM     15  CG  ASN A  2       -3.000  -2.780  -2.845  0.00  0.00    +0.510 C 
ATOM     16  OD1 ASN A  2       -2.177  -3.174  -2.046  0.00  0.00    -0.530 OA
ATOM     17  ND2 ASN A  2       -3.144  -3.406  -4.029  0.00  0.00    -0.860 N 
ATOM     18 HD21 ASN A  2       -2.590  -4.173  -4.243  0.00  0.00    +0.390 HD
ATOM     19 HD22 ASN A  2       -3.803  -3.091  -4.668  0.00  0.00    +0.400 HD
ENDBRANCH  14  15
ENDBRANCH   1  14
TORSDOF 6
ENDMDL
MODEL      116
REMARK  Name = ZINC000001575554
REMARK                            x       y       z     vdW  Elec       q    Type
REMARK                         _______ _______ _______ _____ _____    ______ ____
ROOT
ATOM      1  CA  ASN A  2       -3.499  -1.070  -1.120  0.00  0.00    +0.180 C 
ENDROOT
BRANCH   1   3
ATOM      2  C   ALA A  1       -1.412  -0.526   0.013  0.00  0.00    +0.490 C 
ATOM      3  N   ASN A  2       -2.125  -0.563  -1.130  0.00  0.00    -0.680 N 
ATOM      4  H   ASN A  2       -1.728  -0.253  -1.960  0.00  0.00    +0.390 HD
ATOM      5  O   ALA A  1       -1.908  -0.912   1.050  0.00  0.00    -0.560 OA
BRANCH   2   7
ATOM      6  CB  ALA A  1       -0.019   1.526   0.010  0.00  0.00    +0.060 C 
ATOM      7  CA  ALA A  1        0.002  -0.004   0.002  0.00  0.00    +0.170 C 
BRANCH   7   8
ATOM      8  N   ALA A  1        0.713  -0.491   1.192  0.00  0.00    -0.820 NA
ATOM      9  H1  ALA A  1        0.796  -1.496   1.177  0.00  0.00    +0.350 HD
ATOM     10  H2  ALA A  1        0.259  -0.178   2.037  0.00  0.00    +0.350 HD
ENDBRANCH   7   8
ENDBRANCH   2   7
ENDBRANCH   1   3
BRANCH   1  11
ATOM     11  C   ASN A  2       -3.482  -2.571  -1.252  0.00  0.00    +0.490 C 
ATOM     12  OXT ASN A  2       -4.530  -3.194  -1.265  0.00  0.00    -0.700 OA
ATOM     13  O   ASN A  2       -2.420  -3.162  -1.346  0.00  0.00    -0.680 OA
ENDBRANCH   1  11
BRANCH   1  14
ATOM     14  CB  ASN A  2       -4.276  -0.464  -2.291  0.00  0.00    +0.070 C 
BRANCH  14  15
ATOM     15  CG  ASN A  2       -4.399   1.026  -2.095  0.00  0.00    +0.510 C 
ATOM     16  OD1 ASN A  2       -3.913   1.550  -1.115  0.00  0.00    -0.530 OA
ATOM     17  ND2 ASN A  2       -5.048   1.774  -3.009  0.00  0.00    -0.860 N 
ATOM     18 HD21 ASN A  2       -5.127   2.732  -2.882  0.00  0.00    +0.390 HD
ATOM     19 HD22 ASN A  2       -5.436   1.354  -3.792  0.00  0.00    +0.400 HD
ENDBRANCH  14  15
ENDBRANCH   1  14
TORSDOF 6
ENDMDL
MODEL      117
REMARK  Name = ZINC000001575521
REMARK                            x       y       z     vdW  Elec       q    Type
REMARK                         _______ _______ _______ _____ _____    ______ ____
ROOT
ATOM      1  C   LEU A  1       -3.583  -0.545  -1.223  0.00  0.00    +0.480 C 
ATOM      2  N   GLY A  2       -4.471   0.210  -0.548  0.00  0.00    -0.710 N 
ATOM      3  H   GLY A  2       -4.179   1.021  -0.103  0.00  0.00    +0.410 HD
ATOM      4  O   LEU A  1       -3.948  -1.559  -1.781  0.00  0.00    -0.550 OA
ENDROOT
BRANCH   1   5
ATOM      5  CA  LEU A  1       -2.135  -0.131  -1.286  0.00  0.00    +0.190 C 
BRANCH   5   6
ATOM      6  N   LEU A  1       -1.484  -0.797  -2.421  0.00  0.00    -0.820 NA
ATOM      7  H1  LEU A  1       -1.887  -0.498  -3.296  0.00  0.00    +0.340 HD
ATOM      8  H2  LEU A  1       -1.529  -1.801  -2.326  0.00  0.00    +0.350 HD
ENDBRANCH   5   6
BRANCH   5   9
ATOM      9  CB  LEU A  1       -1.433  -0.534   0.013  0.00  0.00    +0.040 C 
BRANCH   9  11
ATOM     10  CD1 LEU A  1       -0.019   1.526   0.010  0.00  0.00    +0.010 C 
ATOM     11  CG  LEU A  1        0.002  -0.004   0.002  0.00  0.00    +0.000 C 
ATOM     12  CD2 LEU A  1        0.742  -0.511   1.242  0.00  0.00    +0.000 C 
ENDBRANCH   9  11
ENDBRANCH   5   9
ENDBRANCH   1   5
BRANCH   2  13
ATOM     13  CA  GLY A  2       -5.879  -0.192  -0.488  0.00  0.00    +0.300 C 
BRANCH  13  14
ATOM     14  C   GLY A  2       -6.655   0.815   0.321  0.00  0.00    +0.500 C 
ATOM     15  N   GLY A  3       -7.979   0.649   0.512  0.00  0.00    -0.690 N 
ATOM     16  H   GLY A  3       -8.432  -0.118   0.129  0.00  0.00    +0.410 HD
ATOM     17  O   GLY A  2       -6.089   1.775   0.799  0.00  0.00    -0.560 OA
BRANCH  15  18
ATOM     18  CA  GLY A  3       -8.734   1.629   1.298  0.00  0.00    +0.190 C 
BRANCH  18  19
ATOM     19  C   GLY A  3      -10.181   1.215   1.360  0.00  0.00    +0.490 C 
ATOM     20  OXT GLY A  3      -10.985   1.898   1.971  0.00  0.00    -0.690 OA
ATOM     21  O   GLY A  3      -10.549   0.196   0.800  0.00  0.00    -0.690 OA
ENDBRANCH  18  19
ENDBRANCH  15  18
ENDBRANCH  13  14
ENDBRANCH   2  13
TORSDOF 8
ENDMDL
MODEL      118
REMARK  Name = ZINC000001575501
REMARK                            x       y       z     vdW  Elec       q    Type
REMARK                         _______ _______ _______ _____ _____    ______ ____
ROOT
ATOM      1  C   ALA A  1       -1.412  -0.526   0.013  0.00  0.00    +0.520 C 
ATOM      2  N   GLY A  2       -2.256  -0.206  -0.988  0.00  0.00    -0.710 N 
ATOM      3  H   GLY A  2       -1.953   0.360  -1.716  0.00  0.00    +0.410 HD
ATOM      4  O   ALA A  1       -1.790  -1.233   0.922  0.00  0.00    -0.530 OA
ENDROOT
BRANCH   1   6
ATOM      5  CB  ALA A  1       -0.019   1.526   0.010  0.00  0.00    +0.070 C 
ATOM      6  CA  ALA A  1        0.002  -0.004   0.002  0.00  0.00    +0.130 C 
BRANCH   6   7
ATOM      7  N   ALA A  1        0.713  -0.491   1.192  0.00  0.00    -0.830 NA
ATOM      8  H1  ALA A  1        1.664  -0.154   1.208  0.00  0.00    +0.350 HD
ATOM      9  H2  ALA A  1        0.684  -1.498   1.243  0.00  0.00    +0.350 HD
ENDBRANCH   6   7
ENDBRANCH   1   6
BRANCH   2  10
ATOM     10  CA  GLY A  2       -3.630  -0.713  -0.978  0.00  0.00    +0.300 C 
BRANCH  10  11
ATOM     11  C   GLY A  2       -4.359  -0.214  -2.199  0.00  0.00    +0.500 C 
ATOM     12  N   GLY A  3       -5.647  -0.556  -2.402  0.00  0.00    -0.690 N 
ATOM     13  H   GLY A  3       -6.104  -1.123  -1.762  0.00  0.00    +0.410 HD
ATOM     14  O   GLY A  2       -3.787   0.496  -2.999  0.00  0.00    -0.560 OA
BRANCH  12  15
ATOM     15  CA  GLY A  3       -6.355  -0.070  -3.589  0.00  0.00    +0.190 C 
BRANCH  15  16
ATOM     16  C   GLY A  3       -7.769  -0.592  -3.578  0.00  0.00    +0.490 C 
ATOM     17  OXT GLY A  3       -8.532  -0.303  -4.484  0.00  0.00    -0.690 OA
ATOM     18  O   GLY A  3       -8.149  -1.303  -2.664  0.00  0.00    -0.690 OA
ENDBRANCH  15  16
ENDBRANCH  12  15
ENDBRANCH  10  11
ENDBRANCH   2  10
TORSDOF 6
ENDMDL
MODEL      119
REMARK  Name = ZINC000001575555
REMARK                            x       y       z     vdW  Elec       q    Type
REMARK                         _______ _______ _______ _____ _____    ______ ____
ROOT
ATOM      1  CA  ASN A  2        0.738  -0.999  -3.621  0.00  0.00    +0.190 C 
ENDROOT
BRANCH   1   3
ATOM      2  C   ALA A  1        0.707  -0.490  -1.238  0.00  0.00    +0.520 C 
ATOM      3  N   ASN A  2        0.053  -0.526  -2.415  0.00  0.00    -0.690 N 
ATOM      4  H   ASN A  2       -0.873  -0.239  -2.465  0.00  0.00    +0.390 HD
ATOM      5  O   ALA A  1        1.864  -0.849  -1.176  0.00  0.00    -0.540 OA
BRANCH   2   7
ATOM      6  CB  ALA A  1       -0.019   1.526   0.010  0.00  0.00    +0.010 C 
ATOM      7  CA  ALA A  1        0.002  -0.004   0.002  0.00  0.00    +0.170 C 
BRANCH   7   8
ATOM      8  N   ALA A  1        0.713  -0.491   1.192  0.00  0.00    -0.830 NA
ATOM      9  H1  ALA A  1        0.223  -0.233   2.036  0.00  0.00    +0.340 HD
ATOM     10  H2  ALA A  1        1.664  -0.154   1.208  0.00  0.00    +0.350 HD
ENDBRANCH   7   8
ENDBRANCH   2   7
ENDBRANCH   1   3
BRANCH   1  11
ATOM     11  C   ASN A  2        0.652  -2.501  -3.691  0.00  0.00    +0.490 C 
ATOM     12  OXT ASN A  2        1.540  -3.138  -4.231  0.00  0.00    -0.690 OA
ATOM     13  O   ASN A  2       -0.307  -3.080  -3.209  0.00  0.00    -0.690 OA
ENDBRANCH   1  11
BRANCH   1  14
ATOM     14  CB  ASN A  2        0.073  -0.391  -4.857  0.00  0.00    +0.070 C 
BRANCH  14  15
ATOM     15  CG  ASN A  2        0.267   1.104  -4.848  0.00  0.00    +0.510 C 
ATOM     16  OD1 ASN A  2        0.877   1.631  -3.942  0.00  0.00    -0.530 OA
ATOM     17  ND2 ASN A  2       -0.238   1.855  -5.847  0.00  0.00    -0.860 N 
ATOM     18 HD21 ASN A  2       -0.113   2.817  -5.841  0.00  0.00    +0.390 HD
ATOM     19 HD22 ASN A  2       -0.725   1.433  -6.572  0.00  0.00    +0.400 HD
ENDBRANCH  14  15
ENDBRANCH   1  14
TORSDOF 6
ENDMDL
MODEL      120
REMARK  Name = ZINC000001575553
REMARK                            x       y       z     vdW  Elec       q    Type
REMARK                         _______ _______ _______ _____ _____    ______ ____
ROOT
ATOM      1  CA  ASN A  2        0.738  -0.999  -3.621  0.00  0.00    +0.180 C 
ENDROOT
BRANCH   1   3
ATOM      2  C   ALA A  1        0.707  -0.490  -1.238  0.00  0.00    +0.530 C 
ATOM      3  N   ASN A  2        0.053  -0.526  -2.415  0.00  0.00    -0.690 N 
ATOM      4  H   ASN A  2       -0.873  -0.239  -2.465  0.00  0.00    +0.380 HD
ATOM      5  O   ALA A  1        1.864  -0.849  -1.176  0.00  0.00    -0.540 OA
BRANCH   2   7
ATOM      6  CB  ALA A  1       -0.019   1.526   0.010  0.00  0.00    +0.010 C 
ATOM      7  CA  ALA A  1        0.002  -0.004   0.002  0.00  0.00    +0.160 C 
BRANCH   7   8
ATOM      8  N   ALA A  1        0.713  -0.491   1.192  0.00  0.00    -0.830 NA
ATOM      9  H1  ALA A  1        0.223  -0.233   2.036  0.00  0.00    +0.340 HD
ATOM     10  H2  ALA A  1        1.664  -0.154   1.208  0.00  0.00    +0.350 HD
ENDBRANCH   7   8
ENDBRANCH   2   7
ENDBRANCH   1   3
BRANCH   1  11
ATOM     11  C   ASN A  2        1.501   0.142  -4.244  0.00  0.00    +0.490 C 
ATOM     12  OXT ASN A  2        2.145  -0.041  -5.263  0.00  0.00    -0.700 OA
ATOM     13  O   ASN A  2        1.474   1.247  -3.730  0.00  0.00    -0.680 OA
ENDBRANCH   1  11
BRANCH   1  14
ATOM     14  CB  ASN A  2       -0.292  -1.529  -4.619  0.00  0.00    +0.070 C 
BRANCH  14  15
ATOM     15  CG  ASN A  2       -0.970  -2.746  -4.043  0.00  0.00    +0.510 C 
ATOM     16  OD1 ASN A  2       -0.659  -3.149  -2.942  0.00  0.00    -0.530 OA
ATOM     17  ND2 ASN A  2       -1.921  -3.386  -4.751  0.00  0.00    -0.860 N 
ATOM     18 HD21 ASN A  2       -2.357  -4.169  -4.380  0.00  0.00    +0.390 HD
ATOM     19 HD22 ASN A  2       -2.170  -3.063  -5.631  0.00  0.00    +0.400 HD
ENDBRANCH  14  15
ENDBRANCH   1  14
TORSDOF 6
ENDMDL
MODEL      121
REMARK  Name = ZINC000001589437
REMARK                            x       y       z     vdW  Elec       q    Type
REMARK                         _______ _______ _______ _____ _____    ______ ____
ROOT
ATOM      1  CA  HIS A  1        0.002  -0.004   0.002  0.00  0.00    +0.190 C 
ENDROOT
BRANCH   1   2
ATOM      2  C   HIS A  1        0.621  -0.491  -1.283  0.00  0.00    +0.470 C 
ATOM      3  N   SER A  2        1.114  -1.743  -1.362  0.00  0.00    -0.680 N 
ATOM      4  H   SER A  2        1.071  -2.330  -0.591  0.00  0.00    +0.400 HD
ATOM      5  O   HIS A  1        0.674   0.243  -2.247  0.00  0.00    -0.560 OA
BRANCH   3   6
ATOM      6  CA  SER A  2        1.715  -2.216  -2.611  0.00  0.00    +0.160 C 
BRANCH   6   7
ATOM      7  C   SER A  2        0.635  -2.740  -3.521  0.00  0.00    +0.500 C 
ATOM      8  OXT SER A  2       -0.376  -3.232  -3.048  0.00  0.00    -0.680 OA
ATOM      9  O   SER A  2        0.771  -2.672  -4.731  0.00  0.00    -0.700 OA
ENDBRANCH   6   7
BRANCH   6  10
ATOM     10  CB  SER A  2        2.712  -3.336  -2.305  0.00  0.00    +0.190 C 
BRANCH  10  11
ATOM     11  OG  SER A  2        2.013  -4.463  -1.771  0.00  0.00    -0.550 OA
ATOM     12  H   SER A  2        2.584  -5.212  -1.554  0.00  0.00    +0.360 HD
ENDBRANCH  10  11
ENDBRANCH   6  10
ENDBRANCH   3   6
ENDBRANCH   1   2
BRANCH   1  13
ATOM     13  N   HIS A  1       -0.018   1.465   0.010  0.00  0.00    -0.820 NA
ATOM     14  H1  HIS A  1       -0.556   1.823  -0.764  0.00  0.00    +0.350 HD
ATOM     15  H2  HIS A  1        0.919   1.839   0.003  0.00  0.00    +0.340 HD
ENDBRANCH   1  13
BRANCH   1  16
ATOM     16  CB  HIS A  1       -1.429  -0.534   0.112  0.00  0.00    +0.150 C 
BRANCH  16  17
ATOM     17  CG  HIS A  1       -2.005  -0.151   1.451  0.00  0.00    +0.040 A 
ATOM     18  CD2 HIS A  1       -3.154   0.521   1.655  0.00  0.00    +0.110 A 
ATOM     19  NE2 HIS A  1       -3.300   0.655   3.009  0.00  0.00    -0.570 N 
ATOM     20  HE2 HIS A  1       -4.032   1.095   3.469  0.00  0.00    +0.420 HD
ATOM     21  CE1 HIS A  1       -2.233   0.061   3.586  0.00  0.00    +0.380 A 
ATOM     22  ND1 HIS A  1       -1.466  -0.423   2.648  0.00  0.00    -0.480 NA
ENDBRANCH  16  17
ENDBRANCH   1  16
TORSDOF 8
ENDMDL
MODEL      122
REMARK  Name = ZINC000001589437
REMARK                            x       y       z     vdW  Elec       q    Type
REMARK                         _______ _______ _______ _____ _____    ______ ____
ROOT
ATOM      1  CA  HIS A  1        0.002  -0.004   0.002  0.00  0.00    +0.190 C 
ENDROOT
BRANCH   1   2
ATOM      2  C   HIS A  1        0.731  -0.503   1.223  0.00  0.00    +0.520 C 
ATOM      3  N   SER A  2        0.541  -1.767   1.651  0.00  0.00    -0.690 N 
ATOM      4  H   SER A  2       -0.064  -2.355   1.173  0.00  0.00    +0.400 HD
ATOM      5  O   HIS A  1        1.488   0.232   1.820  0.00  0.00    -0.540 OA
BRANCH   3   6
ATOM      6  CA  SER A  2        1.250  -2.252   2.838  0.00  0.00    +0.160 C 
BRANCH   6   7
ATOM      7  C   SER A  2        2.617  -2.746   2.440  0.00  0.00    +0.500 C 
ATOM      8  OXT SER A  2        2.797  -3.213   1.328  0.00  0.00    -0.680 OA
ATOM      9  O   SER A  2        3.543  -2.678   3.230  0.00  0.00    -0.700 OA
ENDBRANCH   6   7
BRANCH   6  10
ATOM     10  CB  SER A  2        0.458  -3.398   3.471  0.00  0.00    +0.190 C 
BRANCH  10  11
ATOM     11  OG  SER A  2        0.424  -4.508   2.572  0.00  0.00    -0.550 OA
ATOM     12  H   SER A  2       -0.062  -5.273   2.909  0.00  0.00    +0.370 HD
ENDBRANCH  10  11
ENDBRANCH   6  10
ENDBRANCH   3   6
ENDBRANCH   1   2
BRANCH   1  13
ATOM     13  N   HIS A  1       -0.018   1.465   0.010  0.00  0.00    -0.820 NA
ATOM     14  H1  HIS A  1       -0.556   1.823  -0.764  0.00  0.00    +0.340 HD
ATOM     15  H2  HIS A  1        0.919   1.839   0.003  0.00  0.00    +0.350 HD
ENDBRANCH   1  13
BRANCH   1  16
ATOM     16  CB  HIS A  1        0.718  -0.497  -1.257  0.00  0.00    +0.110 C 
BRANCH  16  17
ATOM     17  CG  HIS A  1       -0.077  -0.103  -2.474  0.00  0.00    -0.020 A 
ATOM     18  CD2 HIS A  1       -1.113  -0.777  -3.010  0.00  0.00    +0.150 A 
ATOM     19  NE2 HIS A  1       -1.542  -0.095  -4.082  0.00  0.00    -0.490 NA
ATOM     20  CE1 HIS A  1       -0.812   0.977  -4.231  0.00  0.00    +0.390 A 
ATOM     21  ND1 HIS A  1        0.111   1.013  -3.245  0.00  0.00    -0.570 N 
ATOM     22  HD1 HIS A  1        0.784   1.698  -3.112  0.00  0.00    +0.420 HD
ENDBRANCH  16  17
ENDBRANCH   1  16
TORSDOF 8
ENDMDL
MODEL      123
REMARK  Name = ZINC000067870493
REMARK                            x       y       z     vdW  Elec       q    Type
REMARK                         _______ _______ _______ _____ _____    ______ ____
ROOT
ATOM      1  C   LIG    1       -1.000  -2.663   1.418  0.00  0.00    +0.270 C 
ENDROOT
BRANCH   1   2
ATOM      2  N   LIG    1       -1.174  -4.117   1.435  0.00  0.00    -0.550 N 
ATOM      3  C   LIG    1       -2.411  -4.649   1.688  0.00  0.00    +0.270 A 
ATOM      4  C   LIG    1       -2.571  -5.990   1.703  0.00  0.00    -0.210 A 
ATOM      5  C   LIG    1       -1.451  -6.821   1.455  0.00  0.00    +0.520 A 
ATOM      6  N   LIG    1       -0.251  -6.257   1.209  0.00  0.00    -0.680 NA
ATOM      7  O   LIG    1       -1.570  -8.032   1.463  0.00  0.00    -0.570 OA
ATOM      8 CL   LIG    1       -4.129  -6.686   2.022  0.00  0.00    -0.070 Cl
ATOM      9  C   LIG    1       -0.120  -4.917   1.195  0.00  0.00    +0.640 A 
ATOM     10  O   LIG    1        0.969  -4.424   0.972  0.00  0.00    -0.600 OA
ENDBRANCH   1   2
BRANCH   1  11
ATOM     11  C   LIG    1       -1.244  -2.135   0.003  0.00  0.00    +0.220 C 
BRANCH  11  12
ATOM     12  N   LIG    1       -2.568  -2.572  -0.461  0.00  0.00    -0.830 NA
ATOM     13  H   LIG    1       -3.296  -2.223   0.144  0.00  0.00    +0.350 HD
ATOM     14  H   LIG    1       -2.611  -3.577  -0.536  0.00  0.00    +0.360 HD
ENDBRANCH  11  12
BRANCH  11  15
ATOM     15  C   LIG    1       -1.185  -0.630   0.010  0.00  0.00    +0.480 C 
ATOM     16  O   LIG    1       -2.208   0.015   0.023  0.00  0.00    -0.500 OA
BRANCH  15  18
ATOM     17  C   LIG    1       -0.018   1.448   0.010  0.00  0.00    +0.260 C 
ATOM     18  O   LIG    1        0.002  -0.004   0.002  0.00  0.00    -0.350 OA
ENDBRANCH  15  18
ENDBRANCH  11  15
ENDBRANCH   1  11
TORSDOF 5
ENDMDL
MODEL      124
REMARK  Name = ZINC000001590503
REMARK                            x       y       z     vdW  Elec       q    Type
REMARK                         _______ _______ _______ _____ _____    ______ ____
ROOT
ATOM      1  C   LIG    1       -2.792   1.334   2.658  0.00  0.00    +0.140 C 
ENDROOT
BRANCH   1   2
ATOM      2  C   LIG    1       -2.305   0.617   1.397  0.00  0.00    +0.260 C 
BRANCH   2   3
ATOM      3  O   LIG    1       -2.834  -0.710   1.370  0.00  0.00    -0.530 OA
ATOM      4  H   LIG    1       -2.572  -1.253   2.126  0.00  0.00    +0.360 HD
ENDBRANCH   2   3
BRANCH   2   5
ATOM      5  C   LIG    1       -0.776   0.557   1.403  0.00  0.00    -0.510 C 
BRANCH   5   7
ATOM      6  O   LIG    1       -0.739  -1.502  -0.291  0.00  0.00    -1.050 OA
ATOM      7  S   LIG    1       -0.194  -0.160  -0.159  0.00  0.00    +2.640 S 
ATOM      8  O   LIG    1       -0.650   0.677  -1.258  0.00  0.00    -1.060 OA
ATOM      9  O   LIG    1        1.260  -0.210  -0.138  0.00  0.00    -1.080 OA
ENDBRANCH   5   7
ENDBRANCH   2   5
ENDBRANCH   1   2
BRANCH   1  10
ATOM     10  N   LIG    1       -4.245   1.532   2.579  0.00  0.00    -0.510 NA
BRANCH  10  11
ATOM     11  C   LIG    1       -4.677   2.621   3.466  0.00  0.00    +0.170 C 
BRANCH  11  12
ATOM     12  C   LIG    1       -4.319   3.967   2.833  0.00  0.00    +0.160 C 
BRANCH  12  13
ATOM     13  O   LIG    1       -5.054   4.133   1.619  0.00  0.00    -0.550 OA
ATOM     14  H   LIG    1       -4.820   4.931   1.124  0.00  0.00    +0.370 HD
ENDBRANCH  12  13
ENDBRANCH  11  12
ENDBRANCH  10  11
BRANCH  10  15
ATOM     15  C   LIG    1       -4.963   0.288   2.884  0.00  0.00    +0.190 C 
BRANCH  15  16
ATOM     16  C   LIG    1       -6.409   0.400   2.396  0.00  0.00    +0.170 C 
BRANCH  16  17
ATOM     17  O   LIG    1       -6.423   0.517   0.972  0.00  0.00    -0.540 OA
ATOM     18  H   LIG    1       -7.309   0.593   0.592  0.00  0.00    +0.370 HD
ENDBRANCH  16  17
ENDBRANCH  15  16
ENDBRANCH  10  15
ENDBRANCH   1  10
TORSDOF 11
ENDMDL
MODEL      125
REMARK  Name = ZINC000001611594
REMARK                            x       y       z     vdW  Elec       q    Type
REMARK                         _______ _______ _______ _____ _____    ______ ____
ROOT
ATOM      1  C   LIG    1       -5.061   1.877   4.057  0.00  0.00    +0.120 C 
ENDROOT
BRANCH   1   2
ATOM      2  N   LIG    1       -4.356   1.438   2.845  0.00  0.00    -0.660 NA
ATOM      3  H   LIG    1       -4.860   1.711   2.015  0.00  0.00    +0.350 HD
BRANCH   2   4
ATOM      4  C   LIG    1       -2.981   1.955   2.820  0.00  0.00    +0.170 C 
BRANCH   4   5
ATOM      5  C   LIG    1       -2.280   1.478   1.546  0.00  0.00    +0.060 C 
BRANCH   5   6
ATOM      6  C   LIG    1       -0.848   2.016   1.520  0.00  0.00    -0.470 C 
BRANCH   6   8
ATOM      7  O   LIG    1        0.002  -0.004   0.002  0.00  0.00    -1.060 OA
ATOM      8  S   LIG    1       -0.018   1.450   0.010  0.00  0.00    +2.640 S 
ATOM      9  O   LIG    1       -0.752   1.947  -1.143  0.00  0.00    -1.070 OA
ATOM     10  O   LIG    1        1.341   1.970  -0.000  0.00  0.00    -1.070 OA
ENDBRANCH   6   8
ENDBRANCH   5   6
ENDBRANCH   4   5
ENDBRANCH   2   4
ENDBRANCH   1   2
BRANCH   1  11
ATOM     11  C   LIG    1       -5.111   3.406   4.093  0.00  0.00    +0.160 C 
BRANCH  11  12
ATOM     12  O   LIG    1       -5.802   3.887   2.939  0.00  0.00    -0.570 OA
ATOM     13  H   LIG    1       -5.872   4.851   2.896  0.00  0.00    +0.380 HD
ENDBRANCH  11  12
ENDBRANCH   1  11
BRANCH   1  14
ATOM     14  C   LIG    1       -4.321   1.361   5.293  0.00  0.00    +0.190 C 
BRANCH  14  15
ATOM     15  O   LIG    1       -4.172  -0.057   5.202  0.00  0.00    -0.550 OA
ATOM     16  H   LIG    1       -3.710  -0.453   5.954  0.00  0.00    +0.370 HD
ENDBRANCH  14  15
ENDBRANCH   1  14
BRANCH   1  17
ATOM     17  C   LIG    1       -6.486   1.321   4.048  0.00  0.00    +0.200 C 
BRANCH  17  18
ATOM     18  O   LIG    1       -7.172   1.747   5.226  0.00  0.00    -0.580 OA
ATOM     19  H   LIG    1       -8.084   1.431   5.287  0.00  0.00    +0.380 HD
ENDBRANCH  17  18
ENDBRANCH   1  17
TORSDOF 11
ENDMDL
MODEL      126
REMARK  Name = ZINC000001637985
REMARK                            x       y       z     vdW  Elec       q    Type
REMARK                         _______ _______ _______ _____ _____    ______ ____
ROOT
ATOM      1  CA  ALA A  2       -3.630  -0.713  -0.978  0.00  0.00    +0.240 C 
ATOM      2  CB  ALA A  2       -3.662  -2.113  -1.595  0.00  0.00    +0.050 C 
ENDROOT
BRANCH   1   4
ATOM      3  C   ALA A  1       -1.412  -0.526   0.013  0.00  0.00    +0.520 C 
ATOM      4  N   ALA A  2       -2.256  -0.206  -0.988  0.00  0.00    -0.710 N 
ATOM      5  H   ALA A  2       -1.953   0.360  -1.716  0.00  0.00    +0.410 HD
ATOM      6  O   ALA A  1       -1.790  -1.233   0.922  0.00  0.00    -0.530 OA
BRANCH   3   8
ATOM      7  CB  ALA A  1       -0.019   1.526   0.010  0.00  0.00    +0.070 C 
ATOM      8  CA  ALA A  1        0.002  -0.004   0.002  0.00  0.00    +0.130 C 
BRANCH   8   9
ATOM      9  N   ALA A  1        0.713  -0.491   1.192  0.00  0.00    -0.830 NA
ATOM     10  H1  ALA A  1        1.664  -0.154   1.208  0.00  0.00    +0.350 HD
ATOM     11  H2  ALA A  1        0.684  -1.498   1.243  0.00  0.00    +0.350 HD
ENDBRANCH   8   9
ENDBRANCH   3   8
ENDBRANCH   1   4
BRANCH   1  12
ATOM     12  C   ALA A  2       -4.512   0.209  -1.780  0.00  0.00    +0.500 C 
ATOM     13  N   ALA A  3       -5.826  -0.059  -1.910  0.00  0.00    -0.690 N 
ATOM     14  H   ALA A  3       -6.204  -0.846  -1.488  0.00  0.00    +0.410 HD
ATOM     15  O   ALA A  2       -4.039   1.193  -2.308  0.00  0.00    -0.560 OA
BRANCH  13  16
ATOM     16  CA  ALA A  3       -6.683   0.837  -2.689  0.00  0.00    +0.150 C 
ATOM     17  CB  ALA A  3       -7.157   1.990  -1.801  0.00  0.00    +0.030 C 
BRANCH  16  18
ATOM     18  C   ALA A  3       -7.878   0.073  -3.199  0.00  0.00    +0.500 C 
ATOM     19  OXT ALA A  3       -8.622   0.582  -4.020  0.00  0.00    -0.690 OA
ATOM     20  O   ALA A  3       -8.100  -1.054  -2.791  0.00  0.00    -0.690 OA
ENDBRANCH  16  18
ENDBRANCH  13  16
ENDBRANCH   1  12
TORSDOF 6
ENDMDL
MODEL      127
REMARK  Name = ZINC000001669440
REMARK                            x       y       z     vdW  Elec       q    Type
REMARK                         _______ _______ _______ _____ _____    ______ ____
ROOT
ATOM      1  C   ALA A  1        0.731  -0.503   1.223  0.00  0.00    +0.520 C 
ATOM      2  N   GLY A  2        2.019  -0.161   1.426  0.00  0.00    -0.720 N 
ATOM      3  H   GLY A  2        2.476   0.406   0.786  0.00  0.00    +0.410 HD
ATOM      4  O   ALA A  1        0.159  -1.213   2.023  0.00  0.00    -0.530 OA
ENDROOT
BRANCH   1   6
ATOM      5  CB  ALA A  1       -0.019   1.526   0.010  0.00  0.00    +0.010 C 
ATOM      6  CA  ALA A  1        0.002  -0.004   0.002  0.00  0.00    +0.180 C 
BRANCH   6   7
ATOM      7  N   ALA A  1       -1.376  -0.512   0.012  0.00  0.00    -0.830 NA
ATOM      8  H1  ALA A  1       -1.886  -0.191  -0.797  0.00  0.00    +0.350 HD
ATOM      9  H2  ALA A  1       -1.850  -0.254   0.865  0.00  0.00    +0.350 HD
ENDBRANCH   6   7
ENDBRANCH   1   6
BRANCH   2  10
ATOM     10  CA  GLY A  2        2.727  -0.647   2.613  0.00  0.00    +0.300 C 
BRANCH  10  11
ATOM     11  C   GLY A  2        4.141  -0.125   2.602  0.00  0.00    +0.500 C 
ATOM     12  N   GLY A  3        4.985  -0.445   3.603  0.00  0.00    -0.690 N 
ATOM     13  H   GLY A  3        4.682  -1.010   4.330  0.00  0.00    +0.410 HD
ATOM     14  O   GLY A  2        4.520   0.583   1.692  0.00  0.00    -0.560 OA
BRANCH  12  15
ATOM     15  CA  GLY A  3        6.359   0.062   3.593  0.00  0.00    +0.190 C 
BRANCH  15  16
ATOM     16  C   GLY A  3        7.088  -0.437   4.814  0.00  0.00    +0.490 C 
ATOM     17  OXT GLY A  3        8.253  -0.128   4.997  0.00  0.00    -0.690 OA
ATOM     18  O   GLY A  3        6.513  -1.150   5.618  0.00  0.00    -0.690 OA
ENDBRANCH  15  16
ENDBRANCH  12  15
ENDBRANCH  10  11
ENDBRANCH   2  10
TORSDOF 6
ENDMDL
MODEL      128
REMARK  Name = ZINC000001758412
REMARK                            x       y       z     vdW  Elec       q    Type
REMARK                         _______ _______ _______ _____ _____    ______ ____
ROOT
ATOM      1  C   LIG    1        1.919  -1.955  -0.027  0.00  0.00    +0.070 C 
ENDROOT
BRANCH   1   2
ATOM      2  C   LIG    1        3.406  -2.317  -0.043  0.00  0.00    +0.150 C 
ATOM      3  N   LIG    1        4.048  -1.925   1.224  0.00  0.00    -0.780 N 
ATOM      4  H   LIG    1        4.123  -1.027   1.582  0.00  0.00    +0.390 HD
ATOM      5  C   LIG    1        4.512  -3.056   1.786  0.00  0.00    +0.660 C 
ATOM      6  N   LIG    1        4.252  -4.139   1.044  0.00  0.00    -0.720 NA
ATOM      7  O   LIG    1        5.100  -3.090   2.848  0.00  0.00    -0.620 OA
ATOM      8  C   LIG    1        3.588  -3.821  -0.089  0.00  0.00    +0.490 C 
ATOM      9  O   LIG    1        3.215  -4.580  -0.957  0.00  0.00    -0.560 OA
ENDBRANCH   1   2
BRANCH   1  10
ATOM     10  C   LIG    1        1.765  -0.433  -0.017  0.00  0.00    -0.340 C 
BRANCH  10  11
ATOM     11  S   LIG    1        0.002  -0.004   0.002  0.00  0.00    +2.610 S 
ATOM     12  O   LIG    1       -0.610  -0.356  -1.231  0.00  0.00    -0.960 OA
ATOM     13  O   LIG    1       -0.587  -0.369   1.243  0.00  0.00    -0.960 OA
BRANCH  11  14
ATOM     14  N   LIG    1       -0.020   1.652   0.011  0.00  0.00    -1.250 NA
ATOM     15  H   LIG    1       -0.867   2.125   0.018  0.00  0.00    +0.420 HD
ATOM     16  H   LIG    1        0.813   2.148   0.006  0.00  0.00    +0.410 HD
ENDBRANCH  11  14
ENDBRANCH  10  11
ENDBRANCH   1  10
TORSDOF 4
ENDMDL
MODEL      129
REMARK  Name = ZINC000002042138
REMARK                            x       y       z     vdW  Elec       q    Type
REMARK                         _______ _______ _______ _____ _____    ______ ____
ROOT
ATOM      1  C   LIG    1        1.919  -1.955  -0.027  0.00  0.00    +0.070 C 
ENDROOT
BRANCH   1   2
ATOM      2  C   LIG    1        3.406  -2.317  -0.043  0.00  0.00    +0.150 C 
ATOM      3  N   LIG    1        4.024  -1.911  -1.317  0.00  0.00    -0.780 N 
ATOM      4  H   LIG    1        4.091  -1.010  -1.668  0.00  0.00    +0.390 HD
ATOM      5  C   LIG    1        4.476  -3.036  -1.900  0.00  0.00    +0.660 C 
ATOM      6  N   LIG    1        4.231  -4.127  -1.165  0.00  0.00    -0.720 NA
ATOM      7  O   LIG    1        5.045  -3.059  -2.974  0.00  0.00    -0.620 OA
ATOM      8  C   LIG    1        3.589  -3.821  -0.016  0.00  0.00    +0.490 C 
ATOM      9  O   LIG    1        3.233  -4.590   0.851  0.00  0.00    -0.560 OA
ENDBRANCH   1   2
BRANCH   1  10
ATOM     10  C   LIG    1        1.765  -0.433  -0.017  0.00  0.00    -0.340 C 
BRANCH  10  11
ATOM     11  S   LIG    1        0.002  -0.004   0.002  0.00  0.00    +2.610 S 
ATOM     12  O   LIG    1       -0.610  -0.356  -1.231  0.00  0.00    -0.960 OA
ATOM     13  O   LIG    1       -0.587  -0.369   1.243  0.00  0.00    -0.960 OA
BRANCH  11  14
ATOM     14  N   LIG    1       -0.020   1.652   0.011  0.00  0.00    -1.250 NA
ATOM     15  H   LIG    1       -0.867   2.125   0.018  0.00  0.00    +0.420 HD
ATOM     16  H   LIG    1        0.813   2.148   0.006  0.00  0.00    +0.410 HD
ENDBRANCH  11  14
ENDBRANCH  10  11
ENDBRANCH   1  10
TORSDOF 4
ENDMDL
MODEL      130
REMARK  Name = ZINC000002384936
REMARK                            x       y       z     vdW  Elec       q    Type
REMARK                         _______ _______ _______ _____ _____    ______ ____
ROOT
ATOM      1  CA  HIS A  1        0.002  -0.004   0.002  0.00  0.00    +0.190 C 
ENDROOT
BRANCH   1   2
ATOM      2  C   HIS A  1        0.621  -0.491  -1.283  0.00  0.00    +0.470 C 
ATOM      3  N   GLY A  2        1.114  -1.743  -1.362  0.00  0.00    -0.690 N 
ATOM      4  H   GLY A  2        1.071  -2.330  -0.591  0.00  0.00    +0.410 HD
ATOM      5  O   HIS A  1        0.674   0.243  -2.247  0.00  0.00    -0.570 OA
BRANCH   3   6
ATOM      6  CA  GLY A  2        1.715  -2.216  -2.611  0.00  0.00    +0.190 C 
BRANCH   6   7
ATOM      7  C   GLY A  2        2.185  -3.637  -2.435  0.00  0.00    +0.490 C 
ATOM      8  OXT GLY A  2        2.719  -4.222  -3.363  0.00  0.00    -0.690 OA
ATOM      9  O   GLY A  2        2.032  -4.202  -1.366  0.00  0.00    -0.690 OA
ENDBRANCH   6   7
ENDBRANCH   3   6
ENDBRANCH   1   2
BRANCH   1  10
ATOM     10  N   HIS A  1       -0.018   1.465   0.010  0.00  0.00    -0.820 NA
ATOM     11  H1  HIS A  1       -0.556   1.823  -0.764  0.00  0.00    +0.340 HD
ATOM     12  H2  HIS A  1        0.919   1.839   0.003  0.00  0.00    +0.350 HD
ENDBRANCH   1  10
BRANCH   1  13
ATOM     13  CB  HIS A  1       -1.429  -0.534   0.112  0.00  0.00    +0.150 C 
BRANCH  13  14
ATOM     14  CG  HIS A  1       -2.005  -0.151   1.451  0.00  0.00    +0.010 A 
ATOM     15  CD2 HIS A  1       -1.854  -0.818   2.611  0.00  0.00    +0.140 A 
ATOM     16  NE2 HIS A  1       -2.521  -0.150   3.564  0.00  0.00    -0.500 NA
ATOM     17  CE1 HIS A  1       -3.079   0.906   3.039  0.00  0.00    +0.370 A 
ATOM     18  ND1 HIS A  1       -2.777   0.946   1.723  0.00  0.00    -0.560 N 
ATOM     19  HD1 HIS A  1       -3.061   1.622   1.088  0.00  0.00    +0.420 HD
ENDBRANCH  13  14
ENDBRANCH   1  13
TORSDOF 6
ENDMDL
MODEL      131
REMARK  Name = ZINC000002384936
REMARK                            x       y       z     vdW  Elec       q    Type
REMARK                         _______ _______ _______ _____ _____    ______ ____
ROOT
ATOM      1  CA  HIS A  1        0.002  -0.004   0.002  0.00  0.00    +0.190 C 
ENDROOT
BRANCH   1   2
ATOM      2  C   HIS A  1        0.621  -0.491  -1.283  0.00  0.00    +0.470 C 
ATOM      3  N   GLY A  2        1.114  -1.743  -1.362  0.00  0.00    -0.690 N 
ATOM      4  H   GLY A  2        1.071  -2.330  -0.591  0.00  0.00    +0.410 HD
ATOM      5  O   HIS A  1        0.674   0.243  -2.247  0.00  0.00    -0.570 OA
BRANCH   3   6
ATOM      6  CA  GLY A  2        1.715  -2.216  -2.611  0.00  0.00    +0.190 C 
BRANCH   6   7
ATOM      7  C   GLY A  2        2.185  -3.637  -2.435  0.00  0.00    +0.490 C 
ATOM      8  OXT GLY A  2        2.719  -4.222  -3.363  0.00  0.00    -0.690 OA
ATOM      9  O   GLY A  2        2.032  -4.202  -1.366  0.00  0.00    -0.690 OA
ENDBRANCH   6   7
ENDBRANCH   3   6
ENDBRANCH   1   2
BRANCH   1  10
ATOM     10  N   HIS A  1       -0.018   1.465   0.010  0.00  0.00    -0.820 NA
ATOM     11  H1  HIS A  1       -0.556   1.823  -0.764  0.00  0.00    +0.340 HD
ATOM     12  H2  HIS A  1        0.919   1.839   0.003  0.00  0.00    +0.350 HD
ENDBRANCH   1  10
BRANCH   1  13
ATOM     13  CB  HIS A  1       -1.429  -0.534   0.112  0.00  0.00    +0.150 C 
BRANCH  13  14
ATOM     14  CG  HIS A  1       -2.005  -0.151   1.451  0.00  0.00    +0.010 A 
ATOM     15  CD2 HIS A  1       -1.854  -0.818   2.611  0.00  0.00    +0.140 A 
ATOM     16  NE2 HIS A  1       -2.521  -0.150   3.564  0.00  0.00    -0.500 NA
ATOM     17  CE1 HIS A  1       -3.079   0.906   3.039  0.00  0.00    +0.370 A 
ATOM     18  ND1 HIS A  1       -2.777   0.946   1.723  0.00  0.00    -0.560 N 
ATOM     19  HD1 HIS A  1       -3.061   1.622   1.088  0.00  0.00    +0.420 HD
ENDBRANCH  13  14
ENDBRANCH   1  13
TORSDOF 6
ENDMDL
MODEL      132
REMARK  Name = ZINC000002539572
REMARK                            x       y       z     vdW  Elec       q    Type
REMARK                         _______ _______ _______ _____ _____    ______ ____
ROOT
ATOM      1  CB  ALA A  2       -0.019   1.526   0.010  0.00  0.00    +0.050 C 
ATOM      2  CA  ALA A  2        0.002  -0.004   0.002  0.00  0.00    +0.230 C 
ENDROOT
BRANCH   2   3
ATOM      3  C   ALA A  2        0.731  -0.503   1.223  0.00  0.00    +0.500 C 
ATOM      4  N   ALA A  3        0.278  -0.191   2.453  0.00  0.00    -0.680 N 
ATOM      5  H   ALA A  3       -0.517   0.356   2.553  0.00  0.00    +0.410 HD
ATOM      6  O   ALA A  2        1.725  -1.187   1.099  0.00  0.00    -0.560 OA
BRANCH   4   7
ATOM      7  CA  ALA A  3        0.986  -0.676   3.640  0.00  0.00    +0.150 C 
ATOM      8  CB  ALA A  3        2.131   0.282   3.978  0.00  0.00    +0.020 C 
BRANCH   7   9
ATOM      9  C   ALA A  3        0.030  -0.746   4.802  0.00  0.00    +0.490 C 
ATOM     10  OXT ALA A  3        0.421  -1.128   5.892  0.00  0.00    -0.690 OA
ATOM     11  O   ALA A  3       -1.136  -0.421   4.653  0.00  0.00    -0.690 OA
ENDBRANCH   7   9
ENDBRANCH   4   7
ENDBRANCH   2   3
BRANCH   2  12
ATOM     12  N   ALA A  2        0.688  -0.476  -1.203  0.00  0.00    -0.710 N 
ATOM     13  H   ALA A  2        1.632  -0.695  -1.170  0.00  0.00    +0.410 HD
ATOM     14  C   ALA A  1        0.006  -0.608  -2.358  0.00  0.00    +0.520 C 
ATOM     15  O   ALA A  1       -1.175  -0.336  -2.400  0.00  0.00    -0.530 OA
BRANCH  14  16
ATOM     16  CA  ALA A  1        0.712  -1.094  -3.598  0.00  0.00    +0.180 C 
ATOM     17  CB  ALA A  1        1.849  -0.133  -3.948  0.00  0.00    +0.010 C 
BRANCH  16  18
ATOM     18  N   ALA A  1       -0.242  -1.150  -4.714  0.00  0.00    -0.830 NA
ATOM     19  H1  ALA A  1        0.207  -1.474  -5.558  0.00  0.00    +0.350 HD
ATOM     20  H2  ALA A  1       -0.682  -0.254  -4.859  0.00  0.00    +0.350 HD
ENDBRANCH  16  18
ENDBRANCH  14  16
ENDBRANCH   2  12
TORSDOF 6
ENDMDL
MODEL      133
REMARK  Name = ZINC000002572099
REMARK                            x       y       z     vdW  Elec       q    Type
REMARK                         _______ _______ _______ _____ _____    ______ ____
ROOT
ATOM      1  CA  ALA A  2        0.712  -1.094  -3.598  0.00  0.00    +0.230 C 
ATOM      2  CB  ALA A  2        1.849  -0.133  -3.948  0.00  0.00    +0.050 C 
ENDROOT
BRANCH   1   5
ATOM      3  N   ALA A  3        0.688  -0.476  -1.203  0.00  0.00    -0.690 N 
ATOM      4  H   ALA A  3        1.632  -0.695  -1.170  0.00  0.00    +0.410 HD
ATOM      5  C   ALA A  2        0.006  -0.608  -2.358  0.00  0.00    +0.500 C 
ATOM      6  O   ALA A  2       -1.175  -0.336  -2.400  0.00  0.00    -0.560 OA
BRANCH   3   8
ATOM      7  CB  ALA A  3       -0.019   1.526   0.010  0.00  0.00    +0.030 C 
ATOM      8  CA  ALA A  3        0.002  -0.004   0.002  0.00  0.00    +0.150 C 
BRANCH   8   9
ATOM      9  C   ALA A  3        0.731  -0.503   1.223  0.00  0.00    +0.500 C 
ATOM     10  OXT ALA A  3        1.824  -1.032   1.107  0.00  0.00    -0.690 OA
ATOM     11  O   ALA A  3        0.228  -0.379   2.326  0.00  0.00    -0.690 OA
ENDBRANCH   8   9
ENDBRANCH   3   8
ENDBRANCH   1   5
BRANCH   1  12
ATOM     12  N   ALA A  2       -0.240  -1.150  -4.711  0.00  0.00    -0.700 N 
ATOM     13  H   ALA A  2       -1.027  -0.584  -4.705  0.00  0.00    +0.410 HD
ATOM     14  C   ALA A  1       -0.021  -1.989  -5.743  0.00  0.00    +0.480 C 
ATOM     15  O   ALA A  1        0.963  -2.697  -5.751  0.00  0.00    -0.550 OA
BRANCH  14  16
ATOM     16  CA  ALA A  1       -1.000  -2.047  -6.888  0.00  0.00    +0.170 C 
ATOM     17  CB  ALA A  1       -2.199  -2.909  -6.490  0.00  0.00    +0.070 C 
BRANCH  16  18
ATOM     18  N   ALA A  1       -0.343  -2.633  -8.064  0.00  0.00    -0.820 NA
ATOM     19  H1  ALA A  1       -0.018  -3.568  -7.869  0.00  0.00    +0.350 HD
ATOM     20  H2  ALA A  1        0.413  -2.047  -8.385  0.00  0.00    +0.340 HD
ENDBRANCH  16  18
ENDBRANCH  14  16
ENDBRANCH   1  12
TORSDOF 6
ENDMDL
MODEL      134
REMARK  Name = ZINC000003123996
REMARK                            x       y       z     vdW  Elec       q    Type
REMARK                         _______ _______ _______ _____ _____    ______ ____
ROOT
ATOM      1  C   LIG    1        0.652  -0.570  -1.138  0.00  0.00    +0.200 C 
ATOM      2  C   LIG    1       -0.388  -0.767  -2.260  0.00  0.00    -0.330 C 
ATOM      3  S   LIG    1        0.193  -2.300  -3.091  0.00  0.00    +2.380 S 
ATOM      4  C   LIG    1        0.786  -3.082  -1.536  0.00  0.00    -0.330 C 
ATOM      5  O   LIG    1        1.298  -2.003  -3.934  0.00  0.00    -0.920 OA
ATOM      6  O   LIG    1       -0.920  -3.023  -3.599  0.00  0.00    -0.940 OA
ATOM      7  C   LIG    1        1.313  -1.881  -0.730  0.00  0.00    +0.190 C 
ENDROOT
BRANCH   1   9
ATOM      8  C   LIG    1       -0.017   1.425   0.010  0.00  0.00    +0.210 C 
ATOM      9  O   LIG    1        0.002  -0.004   0.002  0.00  0.00    -0.370 OA
ENDBRANCH   1   9
BRANCH   7  10
ATOM     10  N   LIG    1        2.762  -1.763  -0.942  0.00  0.00    -0.660 NA
ATOM     11  H   LIG    1        3.006  -1.986  -1.895  0.00  0.00    +0.350 HD
BRANCH  10  12
ATOM     12  C   LIG    1        3.503  -2.608   0.003  0.00  0.00    +0.090 C 
BRANCH  12  13
ATOM     13  C   LIG    1        4.982  -2.461  -0.245  0.00  0.00    +0.490 C 
ATOM     14  O   LIG    1        5.780  -3.082   0.437  0.00  0.00    -0.700 OA
ATOM     15  O   LIG    1        5.382  -1.721  -1.128  0.00  0.00    -0.680 OA
ENDBRANCH  12  13
ENDBRANCH  10  12
ENDBRANCH   7  10
TORSDOF 4
ENDMDL
MODEL      135
REMARK  Name = ZINC000003123997
REMARK                            x       y       z     vdW  Elec       q    Type
REMARK                         _______ _______ _______ _____ _____    ______ ____
ROOT
ATOM      1  C   LIG    1        0.652  -0.570  -1.138  0.00  0.00    +0.170 C 
ATOM      2  C   LIG    1       -0.388  -0.767  -2.260  0.00  0.00    -0.330 C 
ATOM      3  S   LIG    1        0.193  -2.300  -3.091  0.00  0.00    +2.380 S 
ATOM      4  C   LIG    1        0.786  -3.082  -1.536  0.00  0.00    -0.280 C 
ATOM      5  O   LIG    1        1.298  -2.003  -3.934  0.00  0.00    -0.940 OA
ATOM      6  O   LIG    1       -0.920  -3.023  -3.599  0.00  0.00    -0.940 OA
ATOM      7  C   LIG    1        1.313  -1.881  -0.730  0.00  0.00    +0.150 C 
ENDROOT
BRANCH   1   9
ATOM      8  C   LIG    1       -0.017   1.425   0.010  0.00  0.00    +0.190 C 
ATOM      9  O   LIG    1        0.002  -0.004   0.002  0.00  0.00    -0.350 OA
ENDBRANCH   1   9
BRANCH   7  10
ATOM     10  N   LIG    1        1.057  -2.117   0.698  0.00  0.00    -0.640 NA
ATOM     11  H   LIG    1        0.912  -1.247   1.188  0.00  0.00    +0.360 HD
BRANCH  10  12
ATOM     12  C   LIG    1        2.147  -2.890   1.308  0.00  0.00    +0.080 C 
BRANCH  12  13
ATOM     13  C   LIG    1        1.850  -3.111   2.768  0.00  0.00    +0.490 C 
ATOM     14  O   LIG    1        2.635  -3.735   3.462  0.00  0.00    -0.710 OA
ATOM     15  O   LIG    1        0.825  -2.667   3.256  0.00  0.00    -0.680 OA
ENDBRANCH  12  13
ENDBRANCH  10  12
ENDBRANCH   7  10
TORSDOF 4
ENDMDL
MODEL      136
REMARK  Name = ZINC000080570593
REMARK                            x       y       z     vdW  Elec       q    Type
REMARK                         _______ _______ _______ _____ _____    ______ ____
ROOT
ATOM      1  C   LIG    1       -0.019   1.526   0.010  0.00  0.00    +0.070 C 
ATOM      2  C   LIG    1        0.002  -0.004   0.002  0.00  0.00    +0.130 C 
ATOM      3  O   LIG    1       -1.342  -0.526   0.082  0.00  0.00    -0.370 OA
ATOM      4  C   LIG    1       -1.197  -1.881   0.559  0.00  0.00    +0.410 C 
ATOM      5  C   LIG    1       -0.098  -1.802   1.642  0.00  0.00    +0.180 C 
ATOM      6  C   LIG    1        0.711  -0.539   1.266  0.00  0.00    +0.120 C 
ENDROOT
BRANCH   4   7
ATOM      7  N   LIG    1       -2.456  -2.355   1.140  0.00  0.00    -0.530 N 
ATOM      8  C   LIG    1       -3.557  -1.538   1.132  0.00  0.00    +0.270 A 
ATOM      9  C   LIG    1       -4.717  -1.976   1.668  0.00  0.00    -0.120 A 
ATOM     10  C   LIG    1       -4.770  -3.277   2.228  0.00  0.00    +0.510 A 
ATOM     11  N   LIG    1       -3.664  -4.049   2.215  0.00  0.00    -0.680 NA
ATOM     12  O   LIG    1       -5.804  -3.695   2.716  0.00  0.00    -0.590 OA
ATOM     13  F   LIG    1       -5.812  -1.186   1.669  0.00  0.00    -0.140 F 
ATOM     14  C   LIG    1       -2.522  -3.589   1.670  0.00  0.00    +0.660 A 
ATOM     15  O   LIG    1       -1.533  -4.297   1.666  0.00  0.00    -0.610 OA
ENDBRANCH   4   7
BRANCH   5  16
ATOM     16  O   LIG    1       -0.682  -1.660   2.938  0.00  0.00    -0.520 OA
ATOM     17  H   LIG    1       -0.037  -1.606   3.657  0.00  0.00    +0.380 HD
ENDBRANCH   5  16
BRANCH   6  18
ATOM     18  O   LIG    1        0.654   0.424   2.319  0.00  0.00    -0.540 OA
ATOM     19  H   LIG    1        1.145   1.237   2.136  0.00  0.00    +0.370 HD
ENDBRANCH   6  18
TORSDOF 3
ENDMDL
MODEL      137
REMARK  Name = ZINC000004793240
REMARK                            x       y       z     vdW  Elec       q    Type
REMARK                         _______ _______ _______ _____ _____    ______ ____
ROOT
ATOM      1  C   LIG    1       -3.543  -0.101   1.120  0.00  0.00    +0.190 C 
ATOM      2  C   LIG    1       -4.149  -1.512   1.336  0.00  0.00    -0.290 C 
ATOM      3  S   LIG    1       -5.910  -1.098   1.659  0.00  0.00    +2.380 S 
ATOM      4  C   LIG    1       -5.556   0.447   2.579  0.00  0.00    -0.350 C 
ATOM      5  O   LIG    1       -6.473  -2.063   2.538  0.00  0.00    -0.940 OA
ATOM      6  O   LIG    1       -6.560  -0.786   0.435  0.00  0.00    -0.930 OA
ATOM      7  C   LIG    1       -4.134   0.848   2.165  0.00  0.00    +0.210 C 
ENDROOT
BRANCH   1   8
ATOM      8  N   LIG    1       -2.083  -0.161   1.276  0.00  0.00    -0.650 NA
ATOM      9  H   LIG    1       -1.825  -0.795   2.017  0.00  0.00    +0.350 HD
BRANCH   8  10
ATOM     10  CA  LIG    1       -1.433  -0.534   0.013  0.00  0.00    +0.080 C 
BRANCH  10  11
ATOM     11  C   LIG    1       -1.416  -2.035  -0.119  0.00  0.00    +0.470 C 
ATOM     12  OXT LIG    1       -1.451  -2.550  -1.224  0.00  0.00    -0.700 OA
ATOM     13  O   LIG    1       -1.367  -2.734   0.878  0.00  0.00    -0.690 OA
ENDBRANCH  10  11
BRANCH  10  15
ATOM     14  C   LIG    1       -0.019   1.526   0.010  0.00  0.00    -0.000 C 
ATOM     15  C   LIG    1        0.002  -0.004   0.002  0.00  0.00    +0.030 C 
ENDBRANCH  10  15
ENDBRANCH   8  10
ENDBRANCH   1   8
BRANCH   7  16
ATOM     16  O   LIG    1       -4.165   2.167   1.618  0.00  0.00    -0.550 OA
ATOM     17  H   LIG    1       -4.468   2.844   2.239  0.00  0.00    +0.380 HD
ENDBRANCH   7  16
TORSDOF 5
ENDMDL
MODEL      138
REMARK  Name = ZINC000004793234
REMARK                            x       y       z     vdW  Elec       q    Type
REMARK                         _______ _______ _______ _____ _____    ______ ____
ROOT
ATOM      1  C   LIG    1       -3.543  -0.101   1.120  0.00  0.00    +0.160 C 
ATOM      2  C   LIG    1       -3.930   1.285   0.565  0.00  0.00    -0.280 C 
ATOM      3  S   LIG    1       -5.548   1.612   1.374  0.00  0.00    +2.380 S 
ATOM      4  C   LIG    1       -5.085   0.778   2.945  0.00  0.00    -0.340 C 
ATOM      5  O   LIG    1       -6.571   0.875   0.720  0.00  0.00    -0.930 OA
ATOM      6  O   LIG    1       -5.702   3.007   1.596  0.00  0.00    -0.940 OA
ATOM      7  C   LIG    1       -4.196  -0.384   2.467  0.00  0.00    +0.200 C 
ENDROOT
BRANCH   1   8
ATOM      8  N   LIG    1       -2.083  -0.161   1.276  0.00  0.00    -0.640 NA
ATOM      9  H   LIG    1       -1.825  -0.795   2.017  0.00  0.00    +0.370 HD
BRANCH   8  10
ATOM     10  CA  LIG    1       -1.433  -0.534   0.013  0.00  0.00    +0.080 C 
BRANCH  10  11
ATOM     11  C   LIG    1       -1.416  -2.035  -0.119  0.00  0.00    +0.470 C 
ATOM     12  OXT LIG    1       -1.451  -2.550  -1.224  0.00  0.00    -0.700 OA
ATOM     13  O   LIG    1       -1.367  -2.734   0.878  0.00  0.00    -0.690 OA
ENDBRANCH  10  11
BRANCH  10  15
ATOM     14  C   LIG    1       -0.019   1.526   0.010  0.00  0.00    -0.000 C 
ATOM     15  C   LIG    1        0.002  -0.004   0.002  0.00  0.00    +0.030 C 
ENDBRANCH  10  15
ENDBRANCH   8  10
ENDBRANCH   1   8
BRANCH   7  16
ATOM     16  O   LIG    1       -3.172  -0.614   3.437  0.00  0.00    -0.530 OA
ATOM     17  H   LIG    1       -3.506  -0.868   4.309  0.00  0.00    +0.380 HD
ENDBRANCH   7  16
TORSDOF 5
ENDMDL
MODEL      139
REMARK  Name = ZINC000003667987
REMARK                            x       y       z     vdW  Elec       q    Type
REMARK                         _______ _______ _______ _____ _____    ______ ____
ROOT
ATOM      1  C   LIG    1        0.358   0.590  -0.413  0.00  0.00    +0.120 C 
ATOM      2  C   LIG    1        0.080  -0.871  -0.171  0.00  0.00    +0.110 A 
ATOM      3  C   LIG    1       -1.184  -1.294   0.062  0.00  0.00    -0.040 A 
ATOM      4  C   LIG    1       -1.417  -2.677   0.287  0.00  0.00    +0.500 A 
ATOM      5  N   LIG    1       -0.378  -3.536   0.263  0.00  0.00    -0.680 NA
ATOM      6  C   LIG    1        0.869  -3.088   0.029  0.00  0.00    +0.640 A 
ATOM      7  O   LIG    1        1.795  -3.877   0.012  0.00  0.00    -0.610 OA
ATOM      8  O   LIG    1       -2.545  -3.084   0.498  0.00  0.00    -0.570 OA
ATOM      9  N   LIG    1        1.108  -1.783  -0.191  0.00  0.00    -0.660 N 
ATOM     10  H   LIG    1        2.015  -1.481  -0.357  0.00  0.00    +0.390 HD
ENDROOT
BRANCH   3  11
ATOM     11  N   LIG    1       -2.251  -0.378   0.081  0.00  0.00    -1.040 N 
ATOM     12  H   LIG    1       -2.094   0.555  -0.135  0.00  0.00    +0.410 HD
BRANCH  11  13
ATOM     13  S   LIG    1       -3.776  -0.891   0.472  0.00  0.00    +2.630 S 
ATOM     14  O   LIG    1       -4.030  -1.957  -0.433  0.00  0.00    -0.920 OA
ATOM     15  O   LIG    1       -4.561   0.293   0.448  0.00  0.00    -1.000 OA
ATOM     16  C   LIG    1       -3.622  -1.518   2.167  0.00  0.00    -0.280 C 
ENDBRANCH  11  13
ENDBRANCH   3  11
TORSDOF 2
ENDMDL
MODEL      140
REMARK  Name = ZINC000003977743
REMARK                            x       y       z     vdW  Elec       q    Type
REMARK                         _______ _______ _______ _____ _____    ______ ____
ROOT
ATOM      1  C1* LIG    1       -0.114   5.396   0.034  0.00  0.00    +0.420 C 
ATOM      2  C2* LIG    1       -0.872   5.901  -1.212  0.00  0.00    +0.010 C 
ATOM      3  C3* LIG    1       -0.046   7.153  -1.615  0.00  0.00    +0.150 C 
ATOM      4  C4* LIG    1        1.383   6.702  -1.220  0.00  0.00    +0.180 C 
ATOM      5  O4* LIG    1        1.214   5.929  -0.019  0.00  0.00    -0.360 OA
ENDROOT
BRANCH   1  10
ATOM      6  O   LIG    1        0.002  -0.004   0.002  0.00  0.00    -0.580 OA
ATOM      7  C   LIG    1       -0.014   1.214   0.009  0.00  0.00    +0.510 A 
ATOM      8  N   LIG    1       -1.188   1.878   0.029  0.00  0.00    -0.680 NA
ATOM      9  C   LIG    1       -1.206   3.224   0.037  0.00  0.00    +0.650 A 
ATOM     10  N   LIG    1       -0.062   3.932   0.025  0.00  0.00    -0.560 N 
ATOM     11  C   LIG    1        1.153   3.295   0.004  0.00  0.00    +0.270 A 
ATOM     12  O   LIG    1       -2.272   3.808   0.056  0.00  0.00    -0.610 OA
ATOM     13  C   LIG    1        1.199   1.946   0.001  0.00  0.00    -0.110 A 
ATOM     14  F   LIG    1        2.387   1.302  -0.019  0.00  0.00    -0.140 F 
ENDBRANCH   1  10
BRANCH   3  15
ATOM     15  O3* LIG    1       -0.451   8.300  -0.866  0.00  0.00    -0.550 OA
ATOM     16  H3* LIG    1       -1.375   8.553  -1.001  0.00  0.00    +0.380 HD
ENDBRANCH   3  15
BRANCH   4  17
ATOM     17  C5* LIG    1        2.268   7.921  -0.949  0.00  0.00    +0.210 C 
BRANCH  17  18
ATOM     18  O5* LIG    1        3.607   7.491  -0.701  0.00  0.00    -0.570 OA
ATOM     19  H5* LIG    1        4.225   8.212  -0.521  0.00  0.00    +0.380 HD
ENDBRANCH  17  18
ENDBRANCH   4  17
TORSDOF 4
ENDMDL
MODEL      141
REMARK  Name = ZINC000003977744
REMARK                            x       y       z     vdW  Elec       q    Type
REMARK                         _______ _______ _______ _____ _____    ______ ____
ROOT
ATOM      1  C1* LIG    1       -0.114   5.396   0.034  0.00  0.00    +0.390 C 
ATOM      2  C2* LIG    1       -0.798   5.918  -1.248  0.00  0.00    +0.000 C 
ATOM      3  C3* LIG    1       -1.617   7.136  -0.767  0.00  0.00    +0.160 C 
ATOM      4  C4* LIG    1       -1.331   7.206   0.749  0.00  0.00    +0.170 C 
ATOM      5  O4* LIG    1       -0.948   5.862   1.117  0.00  0.00    -0.340 OA
ENDROOT
BRANCH   1  10
ATOM      6  O   LIG    1        0.002  -0.004   0.002  0.00  0.00    -0.580 OA
ATOM      7  C   LIG    1       -0.014   1.214   0.009  0.00  0.00    +0.500 A 
ATOM      8  N   LIG    1       -1.188   1.878   0.029  0.00  0.00    -0.680 NA
ATOM      9  C   LIG    1       -1.206   3.224   0.037  0.00  0.00    +0.640 A 
ATOM     10  N   LIG    1       -0.062   3.932   0.025  0.00  0.00    -0.540 N 
ATOM     11  C   LIG    1        1.153   3.295   0.004  0.00  0.00    +0.240 A 
ATOM     12  O   LIG    1       -2.272   3.808   0.056  0.00  0.00    -0.570 OA
ATOM     13  C   LIG    1        1.199   1.946   0.001  0.00  0.00    -0.100 A 
ATOM     14  F   LIG    1        2.387   1.302  -0.019  0.00  0.00    -0.140 F 
ENDBRANCH   1  10
BRANCH   3  15
ATOM     15  O3* LIG    1       -3.011   6.929  -1.007  0.00  0.00    -0.550 OA
ATOM     16  H3* LIG    1       -3.237   6.819  -1.941  0.00  0.00    +0.380 HD
ENDBRANCH   3  15
BRANCH   4  17
ATOM     17  C5* LIG    1       -2.588   7.632   1.510  0.00  0.00    +0.220 C 
BRANCH  17  18
ATOM     18  O5* LIG    1       -2.273   7.803   2.893  0.00  0.00    -0.570 OA
ATOM     19  H5* LIG    1       -3.025   8.074   3.437  0.00  0.00    +0.380 HD
ENDBRANCH  17  18
ENDBRANCH   4  17
TORSDOF 4
ENDMDL
MODEL      142
REMARK  Name = ZINC000004045293
REMARK                            x       y       z     vdW  Elec       q    Type
REMARK                         _______ _______ _______ _____ _____    ______ ____
ROOT
ATOM      1  C1* LIG    1       -0.114   5.396   0.034  0.00  0.00    +0.410 C 
ATOM      2  C2* LIG    1       -0.872   5.901  -1.212  0.00  0.00    +0.010 C 
ATOM      3  C3* LIG    1       -0.046   7.153  -1.615  0.00  0.00    +0.160 C 
ATOM      4  C4* LIG    1        1.383   6.702  -1.220  0.00  0.00    +0.180 C 
ATOM      5  O4* LIG    1        1.214   5.929  -0.019  0.00  0.00    -0.360 OA
ENDROOT
BRANCH   1  10
ATOM      6  O   LIG    1        0.002  -0.004   0.002  0.00  0.00    -0.580 OA
ATOM      7  C   LIG    1       -0.014   1.214   0.009  0.00  0.00    +0.510 A 
ATOM      8  N   LIG    1       -1.188   1.878   0.029  0.00  0.00    -0.680 NA
ATOM      9  C   LIG    1       -1.206   3.224   0.037  0.00  0.00    +0.650 A 
ATOM     10  N   LIG    1       -0.062   3.932   0.025  0.00  0.00    -0.560 N 
ATOM     11  C   LIG    1        1.153   3.295   0.004  0.00  0.00    +0.270 A 
ATOM     12  O   LIG    1       -2.272   3.808   0.056  0.00  0.00    -0.610 OA
ATOM     13  C   LIG    1        1.199   1.946   0.001  0.00  0.00    -0.110 A 
ATOM     14  F   LIG    1        2.387   1.302  -0.019  0.00  0.00    -0.140 F 
ENDBRANCH   1  10
BRANCH   3  15
ATOM     15  O3* LIG    1       -0.139   7.401  -3.019  0.00  0.00    -0.550 OA
ATOM     16  H3* LIG    1       -1.038   7.581  -3.328  0.00  0.00    +0.390 HD
ENDBRANCH   3  15
BRANCH   4  17
ATOM     17  C5* LIG    1        2.268   7.921  -0.949  0.00  0.00    +0.200 C 
BRANCH  17  18
ATOM     18  O5* LIG    1        3.607   7.491  -0.701  0.00  0.00    -0.560 OA
ATOM     19  H5* LIG    1        4.225   8.212  -0.521  0.00  0.00    +0.380 HD
ENDBRANCH  17  18
ENDBRANCH   4  17
TORSDOF 4
ENDMDL
MODEL      143
REMARK  Name = ZINC000004262454
REMARK                            x       y       z     vdW  Elec       q    Type
REMARK                         _______ _______ _______ _____ _____    ______ ____
ROOT
ATOM      1  C   LIG    1       -2.905   2.050   2.505  0.00  0.00    +0.140 C 
ENDROOT
BRANCH   1   2
ATOM      2  C   LIG    1       -2.341   1.630   1.147  0.00  0.00    +0.240 C 
BRANCH   2   3
ATOM      3  O   LIG    1       -3.201   2.099   0.107  0.00  0.00    -0.520 OA
ATOM      4  H   LIG    1       -3.306   3.061   0.087  0.00  0.00    +0.370 HD
ENDBRANCH   2   3
BRANCH   2   5
ATOM      5  C   LIG    1       -0.946   2.232   0.965  0.00  0.00    -0.510 C 
BRANCH   5   7
ATOM      6  O   LIG    1       -0.196   0.282  -0.691  0.00  0.00    -1.070 OA
ATOM      7  S   LIG    1       -0.277   1.734  -0.645  0.00  0.00    +2.640 S 
ATOM      8  O   LIG    1       -1.163   2.219  -1.692  0.00  0.00    -1.050 OA
ATOM      9  O   LIG    1        1.048   2.314  -0.803  0.00  0.00    -1.070 OA
ENDBRANCH   5   7
ENDBRANCH   2   5
ENDBRANCH   1   2
BRANCH   1  10
ATOM     10  N   LIG    1       -4.191   1.377   2.731  0.00  0.00    -0.510 NA
BRANCH  10  11
ATOM     11  C   LIG    1       -4.876   1.930   3.907  0.00  0.00    +0.170 C 
BRANCH  11  12
ATOM     12  C   LIG    1       -5.491   3.284   3.548  0.00  0.00    +0.160 C 
BRANCH  12  13
ATOM     13  O   LIG    1       -6.519   3.097   2.574  0.00  0.00    -0.550 OA
ATOM     14  H   LIG    1       -6.902   3.921   2.243  0.00  0.00    +0.370 HD
ENDBRANCH  12  13
ENDBRANCH  11  12
ENDBRANCH  10  11
BRANCH  10  15
ATOM     15  C   LIG    1       -4.008  -0.075   2.862  0.00  0.00    +0.170 C 
BRANCH  15  16
ATOM     16  C   LIG    1       -5.357  -0.776   2.689  0.00  0.00    +0.170 C 
BRANCH  16  17
ATOM     17  O   LIG    1       -5.838  -0.564   1.361  0.00  0.00    -0.540 OA
ATOM     18  H   LIG    1       -6.691  -0.981   1.179  0.00  0.00    +0.370 HD
ENDBRANCH  16  17
ENDBRANCH  15  16
ENDBRANCH  10  15
ENDBRANCH   1  10
TORSDOF 11
ENDMDL
MODEL      144
REMARK  Name = ZINC000004298570
REMARK                            x       y       z     vdW  Elec       q    Type
REMARK                         _______ _______ _______ _____ _____    ______ ____
ROOT
ATOM      1  C   LIG    1        0.652  -0.570  -1.138  0.00  0.00    +0.200 C 
ATOM      2  C   LIG    1        2.147  -0.740  -0.826  0.00  0.00    -0.330 C 
ATOM      3  S   LIG    1        2.465  -2.541  -0.943  0.00  0.00    +2.390 S 
ATOM      4  C   LIG    1        0.708  -3.039  -0.728  0.00  0.00    -0.330 C 
ATOM      5  O   LIG    1        3.225  -2.965   0.179  0.00  0.00    -0.940 OA
ATOM      6  O   LIG    1        2.894  -2.865  -2.259  0.00  0.00    -0.940 OA
ATOM      7  C   LIG    1       -0.021  -1.900  -1.483  0.00  0.00    +0.190 C 
ENDROOT
BRANCH   1   9
ATOM      8  C   LIG    1       -0.017   1.425   0.010  0.00  0.00    +0.200 C 
ATOM      9  O   LIG    1        0.002  -0.004   0.002  0.00  0.00    -0.350 OA
ENDBRANCH   1   9
BRANCH   7  10
ATOM     10  N   LIG    1       -1.430  -1.858  -1.071  0.00  0.00    -0.630 NA
ATOM     11  H   LIG    1       -1.526  -2.058  -0.087  0.00  0.00    +0.360 HD
BRANCH  10  12
ATOM     12  C   LIG    1       -2.242  -2.779  -1.877  0.00  0.00    +0.090 C 
BRANCH  12  13
ATOM     13  C   LIG    1       -3.678  -2.708  -1.427  0.00  0.00    +0.490 C 
ATOM     14  O   LIG    1       -4.523  -3.400  -1.971  0.00  0.00    -0.710 OA
ATOM     15  O   LIG    1       -3.996  -1.959  -0.519  0.00  0.00    -0.680 OA
ENDBRANCH  12  13
ENDBRANCH  10  12
ENDBRANCH   7  10
TORSDOF 4
ENDMDL
MODEL      145
REMARK  Name = ZINC000004298569
REMARK                            x       y       z     vdW  Elec       q    Type
REMARK                         _______ _______ _______ _____ _____    ______ ____
ROOT
ATOM      1  C   LIG    1        0.652  -0.570  -1.138  0.00  0.00    +0.190 C 
ATOM      2  C   LIG    1        2.152  -0.741  -0.825  0.00  0.00    -0.310 C 
ATOM      3  S   LIG    1        2.259  -2.490  -0.272  0.00  0.00    +2.380 S 
ATOM      4  C   LIG    1        0.964  -3.080  -1.436  0.00  0.00    -0.270 C 
ATOM      5  O   LIG    1        1.793  -2.602   1.065  0.00  0.00    -0.930 OA
ATOM      6  O   LIG    1        3.519  -3.035  -0.639  0.00  0.00    -0.940 OA
ATOM      7  C   LIG    1       -0.018  -1.895  -1.481  0.00  0.00    +0.160 C 
ENDROOT
BRANCH   1   9
ATOM      8  C   LIG    1       -0.017   1.425   0.010  0.00  0.00    +0.210 C 
ATOM      9  O   LIG    1        0.002  -0.004   0.002  0.00  0.00    -0.380 OA
ENDBRANCH   1   9
BRANCH   7  10
ATOM     10  N   LIG    1       -0.586  -1.798  -2.833  0.00  0.00    -0.650 NA
ATOM     11  H   LIG    1       -0.810  -0.842  -3.063  0.00  0.00    +0.350 HD
BRANCH  10  12
ATOM     12  C   LIG    1       -1.765  -2.663  -2.972  0.00  0.00    +0.090 C 
BRANCH  12  13
ATOM     13  C   LIG    1       -2.318  -2.538  -4.368  0.00  0.00    +0.490 C 
ATOM     14  O   LIG    1       -3.304  -3.177  -4.693  0.00  0.00    -0.700 OA
ATOM     15  O   LIG    1       -1.780  -1.796  -5.173  0.00  0.00    -0.680 OA
ENDBRANCH  12  13
ENDBRANCH  10  12
ENDBRANCH   7  10
TORSDOF 4
ENDMDL
MODEL      146
REMARK  Name = ZINC000004533525
REMARK                            x       y       z     vdW  Elec       q    Type
REMARK                         _______ _______ _______ _____ _____    ______ ____
ROOT
ATOM      1  CA  HIS A  1        0.002  -0.004   0.002  0.00  0.00    +0.190 C 
ENDROOT
BRANCH   1   2
ATOM      2  C   HIS A  1       -1.407  -0.526   0.111  0.00  0.00    +0.510 C 
ATOM      3  N   SER A  2       -1.628  -1.790   0.523  0.00  0.00    -0.690 N 
ATOM      4  H   SER A  2       -0.879  -2.364   0.750  0.00  0.00    +0.390 HD
ATOM      5  O   HIS A  1       -2.343   0.191  -0.173  0.00  0.00    -0.540 OA
BRANCH   3   6
ATOM      6  CA  SER A  2       -2.998  -2.298   0.628  0.00  0.00    +0.160 C 
BRANCH   6   7
ATOM      7  C   SER A  2       -3.574  -1.914   1.967  0.00  0.00    +0.500 C 
ATOM      8  OXT SER A  2       -2.841  -1.791   2.933  0.00  0.00    -0.680 OA
ATOM      9  O   SER A  2       -4.773  -1.728   2.084  0.00  0.00    -0.700 OA
ENDBRANCH   6   7
BRANCH   6  10
ATOM     10  CB  SER A  2       -2.989  -3.822   0.495  0.00  0.00    +0.190 C 
BRANCH  10  11
ATOM     11  OG  SER A  2       -2.288  -4.393   1.601  0.00  0.00    -0.550 OA
ATOM     12  H   SER A  2       -2.243  -5.359   1.582  0.00  0.00    +0.360 HD
ENDBRANCH  10  11
ENDBRANCH   6  10
ENDBRANCH   3   6
ENDBRANCH   1   2
BRANCH   1  13
ATOM     13  N   HIS A  1       -0.018   1.465   0.010  0.00  0.00    -0.820 NA
ATOM     14  H1  HIS A  1       -0.556   1.823  -0.764  0.00  0.00    +0.340 HD
ATOM     15  H2  HIS A  1        0.919   1.839   0.003  0.00  0.00    +0.360 HD
ENDBRANCH   1  13
BRANCH   1  16
ATOM     16  CB  HIS A  1        0.630  -0.498  -1.303  0.00  0.00    +0.090 C 
BRANCH  16  17
ATOM     17  CG  HIS A  1        2.077  -0.080  -1.354  0.00  0.00    +0.010 A 
ATOM     18  CD2 HIS A  1        3.131  -0.897  -1.543  0.00  0.00    +0.130 A 
ATOM     19  NE2 HIS A  1        4.250  -0.110  -1.521  0.00  0.00    -0.570 N 
ATOM     20  HE2 HIS A  1        5.167  -0.409  -1.630  0.00  0.00    +0.420 HD
ATOM     21  CE1 HIS A  1        3.841   1.161  -1.320  0.00  0.00    +0.400 A 
ATOM     22  ND1 HIS A  1        2.540   1.172  -1.226  0.00  0.00    -0.490 NA
ENDBRANCH  16  17
ENDBRANCH   1  16
TORSDOF 8
ENDMDL
MODEL      147
REMARK  Name = ZINC000004533525
REMARK                            x       y       z     vdW  Elec       q    Type
REMARK                         _______ _______ _______ _____ _____    ______ ____
ROOT
ATOM      1  CA  HIS A  1        0.002  -0.004   0.002  0.00  0.00    +0.180 C 
ENDROOT
BRANCH   1   2
ATOM      2  C   HIS A  1        0.707  -0.490  -1.238  0.00  0.00    +0.470 C 
ATOM      3  N   SER A  2        0.510  -1.749  -1.676  0.00  0.00    -0.680 N 
ATOM      4  H   SER A  2       -0.087  -2.343  -1.193  0.00  0.00    +0.400 HD
ATOM      5  O   HIS A  1        1.453   0.252  -1.841  0.00  0.00    -0.550 OA
BRANCH   3   6
ATOM      6  CA  SER A  2        1.195  -2.222  -2.881  0.00  0.00    +0.160 C 
BRANCH   6   7
ATOM      7  C   SER A  2        0.400  -1.827  -4.099  0.00  0.00    +0.500 C 
ATOM      8  OXT SER A  2       -0.813  -1.725  -4.028  0.00  0.00    -0.680 OA
ATOM      9  O   SER A  2        0.969  -1.610  -5.155  0.00  0.00    -0.700 OA
ENDBRANCH   6   7
BRANCH   6  10
ATOM     10  CB  SER A  2        1.326  -3.745  -2.829  0.00  0.00    +0.190 C 
BRANCH  10  11
ATOM     11  OG  SER A  2        0.026  -4.337  -2.877  0.00  0.00    -0.550 OA
ATOM     12  H   SER A  2        0.033  -5.303  -2.848  0.00  0.00    +0.370 HD
ENDBRANCH  10  11
ENDBRANCH   6  10
ENDBRANCH   3   6
ENDBRANCH   1   2
BRANCH   1  13
ATOM     13  N   HIS A  1       -0.018   1.465   0.010  0.00  0.00    -0.810 NA
ATOM     14  H1  HIS A  1       -0.556   1.823  -0.764  0.00  0.00    +0.350 HD
ATOM     15  H2  HIS A  1        0.919   1.839   0.003  0.00  0.00    +0.350 HD
ENDBRANCH   1  13
BRANCH   1  16
ATOM     16  CB  HIS A  1        0.742  -0.511   1.242  0.00  0.00    +0.140 C 
BRANCH  16  17
ATOM     17  CG  HIS A  1       -0.030  -0.130   2.478  0.00  0.00    -0.010 A 
ATOM     18  CD2 HIS A  1        0.034   1.045   3.134  0.00  0.00    +0.170 A 
ATOM     19  NE2 HIS A  1       -0.805   0.983   4.179  0.00  0.00    -0.500 NA
ATOM     20  CE1 HIS A  1       -1.386  -0.185   4.195  0.00  0.00    +0.370 A 
ATOM     21  ND1 HIS A  1       -0.935  -0.908   3.148  0.00  0.00    -0.570 N 
ATOM     22  HD1 HIS A  1       -1.199  -1.812   2.916  0.00  0.00    +0.420 HD
ENDBRANCH  16  17
ENDBRANCH   1  16
TORSDOF 8
ENDMDL
MODEL      148
REMARK  Name = ZINC000004533526
REMARK                            x       y       z     vdW  Elec       q    Type
REMARK                         _______ _______ _______ _____ _____    ______ ____
ROOT
ATOM      1  CA  HIS A  1        0.002  -0.004   0.002  0.00  0.00    +0.200 C 
ENDROOT
BRANCH   1   2
ATOM      2  C   HIS A  1        0.621  -0.491  -1.283  0.00  0.00    +0.480 C 
ATOM      3  N   SER A  2        1.114  -1.743  -1.362  0.00  0.00    -0.680 N 
ATOM      4  H   SER A  2        1.071  -2.330  -0.591  0.00  0.00    +0.400 HD
ATOM      5  O   HIS A  1        0.674   0.243  -2.247  0.00  0.00    -0.560 OA
BRANCH   3   6
ATOM      6  CA  SER A  2        1.715  -2.216  -2.611  0.00  0.00    +0.160 C 
BRANCH   6   7
ATOM      7  C   SER A  2        3.162  -1.798  -2.662  0.00  0.00    +0.500 C 
ATOM      8  OXT SER A  2        3.799  -1.930  -3.694  0.00  0.00    -0.700 OA
ATOM      9  O   SER A  2        3.696  -1.326  -1.673  0.00  0.00    -0.680 OA
ENDBRANCH   6   7
BRANCH   6  10
ATOM     10  CB  SER A  2        1.623  -3.742  -2.675  0.00  0.00    +0.190 C 
BRANCH  10  11
ATOM     11  OG  SER A  2        2.418  -4.311  -1.633  0.00  0.00    -0.560 OA
ATOM     12  H   SER A  2        2.407  -5.278  -1.613  0.00  0.00    +0.370 HD
ENDBRANCH  10  11
ENDBRANCH   6  10
ENDBRANCH   3   6
ENDBRANCH   1   2
BRANCH   1  13
ATOM     13  N   HIS A  1       -0.018   1.465   0.010  0.00  0.00    -0.810 NA
ATOM     14  H1  HIS A  1       -0.556   1.823  -0.764  0.00  0.00    +0.340 HD
ATOM     15  H2  HIS A  1        0.919   1.839   0.003  0.00  0.00    +0.350 HD
ENDBRANCH   1  13
BRANCH   1  16
ATOM     16  CB  HIS A  1       -1.429  -0.534   0.112  0.00  0.00    +0.140 C 
BRANCH  16  17
ATOM     17  CG  HIS A  1       -2.005  -0.151   1.451  0.00  0.00    +0.030 A 
ATOM     18  CD2 HIS A  1       -3.154   0.521   1.655  0.00  0.00    +0.110 A 
ATOM     19  NE2 HIS A  1       -3.300   0.655   3.009  0.00  0.00    -0.570 N 
ATOM     20  HE2 HIS A  1       -4.032   1.095   3.469  0.00  0.00    +0.420 HD
ATOM     21  CE1 HIS A  1       -2.233   0.061   3.586  0.00  0.00    +0.380 A 
ATOM     22  ND1 HIS A  1       -1.466  -0.423   2.648  0.00  0.00    -0.480 NA
ENDBRANCH  16  17
ENDBRANCH   1  16
TORSDOF 8
ENDMDL
MODEL      149
REMARK  Name = ZINC000004533526
REMARK                            x       y       z     vdW  Elec       q    Type
REMARK                         _______ _______ _______ _____ _____    ______ ____
ROOT
ATOM      1  CA  HIS A  1        0.002  -0.004   0.002  0.00  0.00    +0.200 C 
ENDROOT
BRANCH   1   2
ATOM      2  C   HIS A  1        0.731  -0.503   1.223  0.00  0.00    +0.520 C 
ATOM      3  N   SER A  2        0.541  -1.767   1.651  0.00  0.00    -0.690 N 
ATOM      4  H   SER A  2       -0.064  -2.355   1.173  0.00  0.00    +0.400 HD
ATOM      5  O   HIS A  1        1.488   0.232   1.820  0.00  0.00    -0.540 OA
BRANCH   3   6
ATOM      6  CA  SER A  2        1.250  -2.252   2.838  0.00  0.00    +0.160 C 
BRANCH   6   7
ATOM      7  C   SER A  2        0.478  -1.871   4.075  0.00  0.00    +0.500 C 
ATOM      8  OXT SER A  2        0.980  -2.017   5.176  0.00  0.00    -0.700 OA
ATOM      9  O   SER A  2       -0.649  -1.416   3.974  0.00  0.00    -0.680 OA
ENDBRANCH   6   7
BRANCH   6  10
ATOM     10  CB  SER A  2        1.380  -3.775   2.767  0.00  0.00    +0.190 C 
BRANCH  10  11
ATOM     11  OG  SER A  2        0.081  -4.368   2.834  0.00  0.00    -0.560 OA
ATOM     12  H   SER A  2        0.087  -5.334   2.794  0.00  0.00    +0.370 HD
ENDBRANCH  10  11
ENDBRANCH   6  10
ENDBRANCH   3   6
ENDBRANCH   1   2
BRANCH   1  13
ATOM     13  N   HIS A  1       -0.018   1.465   0.010  0.00  0.00    -0.820 NA
ATOM     14  H1  HIS A  1       -0.556   1.823  -0.764  0.00  0.00    +0.340 HD
ATOM     15  H2  HIS A  1        0.919   1.839   0.003  0.00  0.00    +0.350 HD
ENDBRANCH   1  13
BRANCH   1  16
ATOM     16  CB  HIS A  1        0.718  -0.497  -1.257  0.00  0.00    +0.100 C 
BRANCH  16  17
ATOM     17  CG  HIS A  1       -0.077  -0.103  -2.474  0.00  0.00    -0.020 A 
ATOM     18  CD2 HIS A  1       -1.113  -0.777  -3.010  0.00  0.00    +0.150 A 
ATOM     19  NE2 HIS A  1       -1.542  -0.095  -4.082  0.00  0.00    -0.490 NA
ATOM     20  CE1 HIS A  1       -0.812   0.977  -4.231  0.00  0.00    +0.390 A 
ATOM     21  ND1 HIS A  1        0.111   1.013  -3.245  0.00  0.00    -0.570 N 
ATOM     22  HD1 HIS A  1        0.784   1.698  -3.112  0.00  0.00    +0.420 HD
ENDBRANCH  16  17
ENDBRANCH   1  16
TORSDOF 8
ENDMDL
MODEL      150
REMARK  Name = ZINC000004533743
REMARK                            x       y       z     vdW  Elec       q    Type
REMARK                         _______ _______ _______ _____ _____    ______ ____
ROOT
ATOM      1  CA  ALA A  2        2.727  -0.647   2.613  0.00  0.00    +0.240 C 
ATOM      2  CB  ALA A  2        3.294  -2.040   2.334  0.00  0.00    +0.050 C 
ENDROOT
BRANCH   1   4
ATOM      3  C   ALA A  1        0.731  -0.503   1.223  0.00  0.00    +0.520 C 
ATOM      4  N   ALA A  2        2.019  -0.161   1.426  0.00  0.00    -0.710 N 
ATOM      5  H   ALA A  2        2.476   0.406   0.786  0.00  0.00    +0.410 HD
ATOM      6  O   ALA A  1        0.159  -1.213   2.023  0.00  0.00    -0.530 OA
BRANCH   3   8
ATOM      7  CB  ALA A  1       -0.019   1.526   0.010  0.00  0.00    +0.010 C 
ATOM      8  CA  ALA A  1        0.002  -0.004   0.002  0.00  0.00    +0.180 C 
BRANCH   8   9
ATOM      9  N   ALA A  1       -1.376  -0.512   0.012  0.00  0.00    -0.830 NA
ATOM     10  H1  ALA A  1       -1.886  -0.191  -0.797  0.00  0.00    +0.350 HD
ATOM     11  H2  ALA A  1       -1.850  -0.254   0.865  0.00  0.00    +0.350 HD
ENDBRANCH   8   9
ENDBRANCH   3   8
ENDBRANCH   1   4
BRANCH   1  12
ATOM     12  C   ALA A  2        3.854   0.297   2.946  0.00  0.00    +0.500 C 
ATOM     13  N   ALA A  3        4.648   0.050   4.006  0.00  0.00    -0.680 N 
ATOM     14  H   ALA A  3        4.495  -0.735   4.555  0.00  0.00    +0.410 HD
ATOM     15  O   ALA A  2        4.047   1.278   2.259  0.00  0.00    -0.560 OA
BRANCH  13  16
ATOM     16  CA  ALA A  3        5.744   0.967   4.330  0.00  0.00    +0.150 C 
ATOM     17  CB  ALA A  3        5.210   2.119   5.184  0.00  0.00    +0.020 C 
BRANCH  16  18
ATOM     18  C   ALA A  3        6.809   0.227   5.096  0.00  0.00    +0.500 C 
ATOM     19  OXT ALA A  3        7.814   0.811   5.464  0.00  0.00    -0.690 OA
ATOM     20  O   ALA A  3        6.667  -0.958   5.349  0.00  0.00    -0.690 OA
ENDBRANCH  16  18
ENDBRANCH  13  16
ENDBRANCH   1  12
TORSDOF 6
ENDMDL
MODEL      151
REMARK  Name = ZINC000004533527
REMARK                            x       y       z     vdW  Elec       q    Type
REMARK                         _______ _______ _______ _____ _____    ______ ____
ROOT
ATOM      1  CA  HIS A  1        0.002  -0.004   0.002  0.00  0.00    +0.180 C 
ENDROOT
BRANCH   1   2
ATOM      2  C   HIS A  1       -1.407  -0.526   0.111  0.00  0.00    +0.520 C 
ATOM      3  N   SER A  2       -1.628  -1.790   0.523  0.00  0.00    -0.690 N 
ATOM      4  H   SER A  2       -0.879  -2.364   0.750  0.00  0.00    +0.390 HD
ATOM      5  O   HIS A  1       -2.343   0.191  -0.173  0.00  0.00    -0.540 OA
BRANCH   3   6
ATOM      6  CA  SER A  2       -2.998  -2.298   0.628  0.00  0.00    +0.160 C 
BRANCH   6   7
ATOM      7  C   SER A  2       -3.449  -2.811  -0.715  0.00  0.00    +0.500 C 
ATOM      8  OXT SER A  2       -4.617  -3.109  -0.893  0.00  0.00    -0.700 OA
ATOM      9  O   SER A  2       -2.645  -2.928  -1.624  0.00  0.00    -0.680 OA
ENDBRANCH   6   7
BRANCH   6  10
ATOM     10  CB  SER A  2       -3.043  -3.436   1.650  0.00  0.00    +0.190 C 
BRANCH  10  11
ATOM     11  OG  SER A  2       -2.268  -4.537   1.171  0.00  0.00    -0.560 OA
ATOM     12  H   SER A  2       -2.252  -5.296   1.770  0.00  0.00    +0.370 HD
ENDBRANCH  10  11
ENDBRANCH   6  10
ENDBRANCH   3   6
ENDBRANCH   1   2
BRANCH   1  13
ATOM     13  N   HIS A  1       -0.018   1.465   0.010  0.00  0.00    -0.830 NA
ATOM     14  H1  HIS A  1       -0.556   1.823  -0.764  0.00  0.00    +0.350 HD
ATOM     15  H2  HIS A  1        0.919   1.839   0.003  0.00  0.00    +0.360 HD
ENDBRANCH   1  13
BRANCH   1  16
ATOM     16  CB  HIS A  1        0.630  -0.498  -1.303  0.00  0.00    +0.100 C 
BRANCH  16  17
ATOM     17  CG  HIS A  1        2.077  -0.080  -1.354  0.00  0.00    +0.010 A 
ATOM     18  CD2 HIS A  1        3.131  -0.897  -1.543  0.00  0.00    +0.130 A 
ATOM     19  NE2 HIS A  1        4.250  -0.110  -1.521  0.00  0.00    -0.570 N 
ATOM     20  HE2 HIS A  1        5.167  -0.409  -1.630  0.00  0.00    +0.420 HD
ATOM     21  CE1 HIS A  1        3.841   1.161  -1.320  0.00  0.00    +0.390 A 
ATOM     22  ND1 HIS A  1        2.540   1.172  -1.226  0.00  0.00    -0.490 NA
ENDBRANCH  16  17
ENDBRANCH   1  16
TORSDOF 8
ENDMDL
MODEL      152
REMARK  Name = ZINC000004533527
REMARK                            x       y       z     vdW  Elec       q    Type
REMARK                         _______ _______ _______ _____ _____    ______ ____
ROOT
ATOM      1  CA  HIS A  1        0.002  -0.004   0.002  0.00  0.00    +0.180 C 
ENDROOT
BRANCH   1   2
ATOM      2  C   HIS A  1        0.707  -0.490  -1.238  0.00  0.00    +0.480 C 
ATOM      3  N   SER A  2        0.510  -1.749  -1.676  0.00  0.00    -0.680 N 
ATOM      4  H   SER A  2       -0.087  -2.343  -1.193  0.00  0.00    +0.390 HD
ATOM      5  O   HIS A  1        1.453   0.252  -1.841  0.00  0.00    -0.550 OA
BRANCH   3   6
ATOM      6  CA  SER A  2        1.195  -2.222  -2.881  0.00  0.00    +0.160 C 
BRANCH   6   7
ATOM      7  C   SER A  2        2.570  -2.719  -2.515  0.00  0.00    +0.500 C 
ATOM      8  OXT SER A  2        3.375  -2.987  -3.391  0.00  0.00    -0.700 OA
ATOM      9  O   SER A  2        2.877  -2.854  -1.343  0.00  0.00    -0.680 OA
ENDBRANCH   6   7
BRANCH   6  10
ATOM     10  CB  SER A  2        0.392  -3.361  -3.512  0.00  0.00    +0.190 C 
BRANCH  10  11
ATOM     11  OG  SER A  2        0.374  -4.480  -2.623  0.00  0.00    -0.560 OA
ATOM     12  H   SER A  2       -0.118  -5.241  -2.959  0.00  0.00    +0.370 HD
ENDBRANCH  10  11
ENDBRANCH   6  10
ENDBRANCH   3   6
ENDBRANCH   1   2
BRANCH   1  13
ATOM     13  N   HIS A  1       -0.018   1.465   0.010  0.00  0.00    -0.810 NA
ATOM     14  H1  HIS A  1       -0.556   1.823  -0.764  0.00  0.00    +0.340 HD
ATOM     15  H2  HIS A  1        0.919   1.839   0.003  0.00  0.00    +0.350 HD
ENDBRANCH   1  13
BRANCH   1  16
ATOM     16  CB  HIS A  1        0.742  -0.511   1.242  0.00  0.00    +0.150 C 
BRANCH  16  17
ATOM     17  CG  HIS A  1       -0.030  -0.130   2.478  0.00  0.00    +0.000 A 
ATOM     18  CD2 HIS A  1        0.034   1.045   3.134  0.00  0.00    +0.170 A 
ATOM     19  NE2 HIS A  1       -0.805   0.983   4.179  0.00  0.00    -0.500 NA
ATOM     20  CE1 HIS A  1       -1.386  -0.185   4.195  0.00  0.00    +0.370 A 
ATOM     21  ND1 HIS A  1       -0.935  -0.908   3.148  0.00  0.00    -0.570 N 
ATOM     22  HD1 HIS A  1       -1.199  -1.812   2.916  0.00  0.00    +0.420 HD
ENDBRANCH  16  17
ENDBRANCH   1  16
TORSDOF 8
ENDMDL
MODEL      153
REMARK  Name = ZINC000002516284
REMARK                            x       y       z     vdW  Elec       q    Type
REMARK                         _______ _______ _______ _____ _____    ______ ____
ROOT
ATOM      1  C   VAL A  1       -1.413  -2.041   0.005  0.00  0.00    +0.480 C 
ATOM      2  N   THR A  2       -1.212  -2.705  -1.150  0.00  0.00    -0.680 N 
ATOM      3  H   THR A  2       -1.081  -2.214  -1.976  0.00  0.00    +0.390 HD
ATOM      4  O   VAL A  1       -1.577  -2.655   1.037  0.00  0.00    -0.560 OA
ENDROOT
BRANCH   1   5
ATOM      5  CA  VAL A  1       -1.433  -0.534   0.013  0.00  0.00    +0.170 C 
BRANCH   5   7
ATOM      6  CG1 VAL A  1       -0.019   1.526   0.010  0.00  0.00    +0.040 C 
ATOM      7  CB  VAL A  1        0.002  -0.004   0.002  0.00  0.00    +0.000 C 
ATOM      8  CG2 VAL A  1        0.742  -0.511   1.242  0.00  0.00    +0.020 C 
ENDBRANCH   5   7
BRANCH   5   9
ATOM      9  N   VAL A  1       -2.121  -0.060   1.222  0.00  0.00    -0.820 NA
ATOM     10  H1  VAL A  1       -1.651  -0.382   2.054  0.00  0.00    +0.350 HD
ATOM     11  H2  VAL A  1       -3.090  -0.343   1.221  0.00  0.00    +0.340 HD
ENDBRANCH   5   9
ENDBRANCH   1   5
BRANCH   2  12
ATOM     12  CA  THR A  2       -1.192  -4.170  -1.159  0.00  0.00    +0.170 C 
BRANCH  12  13
ATOM     13  C   THR A  2        0.190  -4.656  -0.806  0.00  0.00    +0.500 C 
ATOM     14  OXT THR A  2        0.422  -5.852  -0.757  0.00  0.00    -0.700 OA
ATOM     15  O   THR A  2        1.077  -3.853  -0.571  0.00  0.00    -0.680 OA
ENDBRANCH  12  13
BRANCH  12  16
ATOM     16  CB  THR A  2       -1.572  -4.678  -2.551  0.00  0.00    +0.180 C 
ATOM     17  CG2 THR A  2       -2.921  -4.084  -2.960  0.00  0.00    -0.010 C 
BRANCH  16  18
ATOM     18  OG1 THR A  2       -0.572  -4.281  -3.492  0.00  0.00    -0.550 OA
ATOM     19  HG1 THR A  2       -0.748  -4.569  -4.398  0.00  0.00    +0.370 HD
ENDBRANCH  16  18
ENDBRANCH  12  16
ENDBRANCH   2  12
TORSDOF 7
ENDMDL
MODEL      154
REMARK  Name = ZINC000245204220
REMARK                            x       y       z     vdW  Elec       q    Type
REMARK                         _______ _______ _______ _____ _____    ______ ____
ROOT
ATOM      1  C   LIG    1       -3.543  -0.101   1.120  0.00  0.00    +0.190 C 
ATOM      2  C   LIG    1       -4.149  -1.512   1.336  0.00  0.00    -0.290 C 
ATOM      3  S   LIG    1       -5.910  -1.098   1.659  0.00  0.00    +2.380 S 
ATOM      4  C   LIG    1       -5.556   0.447   2.579  0.00  0.00    -0.350 C 
ATOM      5  O   LIG    1       -6.473  -2.063   2.538  0.00  0.00    -0.940 OA
ATOM      6  O   LIG    1       -6.560  -0.786   0.435  0.00  0.00    -0.940 OA
ATOM      7  C   LIG    1       -4.134   0.848   2.165  0.00  0.00    +0.210 C 
ENDROOT
BRANCH   1   8
ATOM      8  N   LIG    1       -2.083  -0.161   1.276  0.00  0.00    -0.630 NA
ATOM      9  H   LIG    1       -1.825  -0.795   2.017  0.00  0.00    +0.360 HD
BRANCH   8  10
ATOM     10  CA  LIG    1       -1.433  -0.534   0.013  0.00  0.00    +0.080 C 
BRANCH  10  11
ATOM     11  C   LIG    1       -1.416  -2.035  -0.119  0.00  0.00    +0.470 C 
ATOM     12  OXT LIG    1       -1.451  -2.550  -1.224  0.00  0.00    -0.700 OA
ATOM     13  O   LIG    1       -1.367  -2.734   0.878  0.00  0.00    -0.690 OA
ENDBRANCH  10  11
BRANCH  10  15
ATOM     14  C   LIG    1       -0.019   1.526   0.010  0.00  0.00    -0.000 C 
ATOM     15  C   LIG    1        0.002  -0.004   0.002  0.00  0.00    +0.030 C 
ENDBRANCH  10  15
ENDBRANCH   8  10
ENDBRANCH   1   8
BRANCH   7  16
ATOM     16  O   LIG    1       -3.295   0.843   3.322  0.00  0.00    -0.540 OA
ATOM     17  H   LIG    1       -3.566   1.470   4.006  0.00  0.00    +0.370 HD
ENDBRANCH   7  16
TORSDOF 5
ENDMDL
MODEL      155
REMARK  Name = ZINC000084201016
REMARK                            x       y       z     vdW  Elec       q    Type
REMARK                         _______ _______ _______ _____ _____    ______ ____
ROOT
ATOM      1  C   UNK A  1        0.657  -2.014   1.298  0.00  0.00    +0.480 C 
ATOM      2  N   THR A  2       -0.460  -2.609   1.763  0.00  0.00    -0.690 N 
ATOM      3  H   THR A  2       -1.208  -2.069   2.061  0.00  0.00    +0.390 HD
ATOM      4  O   UNK A  1        1.593  -2.689   0.925  0.00  0.00    -0.550 OA
ENDROOT
BRANCH   1   5
ATOM      5  C   UNK A  1        0.742  -0.511   1.242  0.00  0.00    +0.170 C 
BRANCH   5   6
ATOM      6  N   UNK A  1        2.151  -0.103   1.171  0.00  0.00    -0.820 NA
ATOM      7  H   UNK A  1        2.598  -0.483   0.350  0.00  0.00    +0.350 HD
ATOM      8  H   UNK A  1        2.647  -0.370   2.009  0.00  0.00    +0.340 HD
ENDBRANCH   5   6
BRANCH   5  10
ATOM      9  C   UNK A  1       -0.019   1.526   0.010  0.00  0.00    +0.020 C 
ATOM     10  C   UNK A  1        0.002  -0.004   0.002  0.00  0.00    +0.030 C 
ENDBRANCH   5  10
ENDBRANCH   1   5
BRANCH   2  11
ATOM     11  CA  THR A  2       -0.543  -4.071   1.817  0.00  0.00    +0.170 C 
BRANCH  11  12
ATOM     12  C   THR A  2       -0.992  -4.599   0.479  0.00  0.00    +0.490 C 
ATOM     13  OXT THR A  2       -1.126  -5.799   0.311  0.00  0.00    -0.680 OA
ATOM     14  O   THR A  2       -1.222  -3.826  -0.435  0.00  0.00    -0.690 OA
ENDBRANCH  11  12
BRANCH  11  15
ATOM     15  CB  THR A  2       -1.549  -4.485   2.893  0.00  0.00    +0.160 C 
ATOM     16  CG2 THR A  2       -1.093  -3.949   4.251  0.00  0.00    -0.010 C 
BRANCH  15  17
ATOM     17  OG1 THR A  2       -1.630  -5.910   2.946  0.00  0.00    -0.530 OA
ATOM     18  HG1 THR A  2       -2.251  -6.245   3.608  0.00  0.00    +0.360 HD
ENDBRANCH  15  17
ENDBRANCH  11  15
ENDBRANCH   2  11
TORSDOF 7
ENDMDL
MODEL      156
REMARK  Name = ZINC000084201019
REMARK                            x       y       z     vdW  Elec       q    Type
REMARK                         _______ _______ _______ _____ _____    ______ ____
ROOT
ATOM      1  C   UNK A  1        0.657  -2.014   1.298  0.00  0.00    +0.470 C 
ATOM      2  N   THR A  2       -0.460  -2.609   1.763  0.00  0.00    -0.680 N 
ATOM      3  H   THR A  2       -1.208  -2.069   2.061  0.00  0.00    +0.400 HD
ATOM      4  O   UNK A  1        1.593  -2.689   0.925  0.00  0.00    -0.560 OA
ENDROOT
BRANCH   1   5
ATOM      5  C   UNK A  1        0.742  -0.511   1.242  0.00  0.00    +0.180 C 
BRANCH   5   6
ATOM      6  N   UNK A  1        2.151  -0.103   1.171  0.00  0.00    -0.820 NA
ATOM      7  H   UNK A  1        2.598  -0.483   0.350  0.00  0.00    +0.350 HD
ATOM      8  H   UNK A  1        2.647  -0.370   2.009  0.00  0.00    +0.350 HD
ENDBRANCH   5   6
BRANCH   5  10
ATOM      9  C   UNK A  1       -0.019   1.526   0.010  0.00  0.00    +0.030 C 
ATOM     10  C   UNK A  1        0.002  -0.004   0.002  0.00  0.00    +0.020 C 
ENDBRANCH   5  10
ENDBRANCH   1   5
BRANCH   2  11
ATOM     11  CA  THR A  2       -0.543  -4.071   1.817  0.00  0.00    +0.170 C 
BRANCH  11  12
ATOM     12  C   THR A  2        0.079  -4.562   3.099  0.00  0.00    +0.500 C 
ATOM     13  OXT THR A  2        0.610  -5.658   3.139  0.00  0.00    -0.700 OA
ATOM     14  O   THR A  2        0.050  -3.862   4.098  0.00  0.00    -0.680 OA
ENDBRANCH  11  12
BRANCH  11  15
ATOM     15  CB  THR A  2       -2.010  -4.501   1.764  0.00  0.00    +0.170 C 
ATOM     16  CG2 THR A  2       -2.641  -4.002   0.463  0.00  0.00    -0.010 C 
BRANCH  15  17
ATOM     17  OG1 THR A  2       -2.711  -3.942   2.878  0.00  0.00    -0.550 OA
ATOM     18  HG1 THR A  2       -3.649  -4.173   2.909  0.00  0.00    +0.360 HD
ENDBRANCH  15  17
ENDBRANCH  11  15
ENDBRANCH   2  11
TORSDOF 7
ENDMDL
MODEL      157
REMARK  Name = ZINC000098210273
REMARK                            x       y       z     vdW  Elec       q    Type
REMARK                         _______ _______ _______ _____ _____    ______ ____
ROOT
ATOM      1  C   LIG    1        1.106   4.108  -1.249  0.00  0.00    +0.150 C 
ENDROOT
BRANCH   1   6
ATOM      2  O   LIG    1        0.002  -0.004   0.002  0.00  0.00    -0.620 OA
ATOM      3  C   LIG    1       -0.014   1.211   0.009  0.00  0.00    +0.660 C 
ATOM      4  N   LIG    1       -1.136   1.940   0.029  0.00  0.00    -0.720 NA
ATOM      5  C   LIG    1       -0.871   3.261   0.032  0.00  0.00    +0.490 C 
ATOM      6  C   LIG    1        0.640   3.376   0.011  0.00  0.00    +0.150 C 
ATOM      7  O   LIG    1       -1.674   4.169   0.049  0.00  0.00    -0.570 OA
ATOM      8  N   LIG    1        1.094   1.974   0.002  0.00  0.00    -0.770 N 
ATOM      9  H   LIG    1        2.012   1.662  -0.011  0.00  0.00    +0.390 HD
ENDBRANCH   1   6
BRANCH   1  10
ATOM     10  C   LIG    1        2.602   4.285  -1.203  0.00  0.00    +0.000 A 
ATOM     11  C   LIG    1        3.493   3.896  -2.145  0.00  0.00    +0.140 A 
ATOM     12  N   LIG    1        4.712   4.257  -1.682  0.00  0.00    -0.300 N 
ATOM     13  N   LIG    1        4.558   4.824  -0.537  0.00  0.00    -0.090 NA
ATOM     14  N   LIG    1        3.310   4.862  -0.226  0.00  0.00    -0.260 NA
BRANCH  12  15
ATOM     15  C   LIG    1        5.989   4.039  -2.366  0.00  0.00    +0.340 C 
BRANCH  15  16
ATOM     16  C   LIG    1        6.725   5.373  -2.510  0.00  0.00    +0.200 C 
BRANCH  16  17
ATOM     17  O   LIG    1        7.970   5.160  -3.178  0.00  0.00    -0.570 OA
ATOM     18  H   LIG    1        8.492   5.965  -3.303  0.00  0.00    +0.390 HD
ENDBRANCH  16  17
ENDBRANCH  15  16
ENDBRANCH  12  15
ENDBRANCH   1  10
TORSDOF 5
ENDMDL
MODEL      158
REMARK  Name = ZINC000080570586
REMARK                            x       y       z     vdW  Elec       q    Type
REMARK                         _______ _______ _______ _____ _____    ______ ____
ROOT
ATOM      1  C   LIG    1       -0.019   1.526   0.010  0.00  0.00    +0.060 C 
ATOM      2  C   LIG    1        0.002  -0.004   0.002  0.00  0.00    +0.130 C 
ATOM      3  O   LIG    1       -1.342  -0.511   0.052  0.00  0.00    -0.370 OA
ATOM      4  C   LIG    1       -1.302  -1.734   0.819  0.00  0.00    +0.430 C 
ATOM      5  C   LIG    1       -0.315  -1.409   1.968  0.00  0.00    +0.180 C 
ATOM      6  C   LIG    1        0.739  -0.525   1.251  0.00  0.00    +0.120 C 
ENDROOT
BRANCH   4   7
ATOM      7  N   LIG    1       -2.630  -2.054   1.350  0.00  0.00    -0.530 N 
ATOM      8  C   LIG    1       -3.693  -1.241   1.053  0.00  0.00    +0.270 A 
ATOM      9  C   LIG    1       -4.917  -1.537   1.542  0.00  0.00    -0.110 A 
ATOM     10  C   LIG    1       -5.074  -2.687   2.356  0.00  0.00    +0.510 A 
ATOM     11  N   LIG    1       -4.003  -3.460   2.624  0.00  0.00    -0.680 NA
ATOM     12  O   LIG    1       -6.168  -2.974   2.809  0.00  0.00    -0.580 OA
ATOM     13  F   LIG    1       -5.976  -0.747   1.260  0.00  0.00    -0.140 F 
ATOM     14  C   LIG    1       -2.795  -3.145   2.119  0.00  0.00    +0.650 A 
ATOM     15  O   LIG    1       -1.839  -3.852   2.369  0.00  0.00    -0.610 OA
ENDBRANCH   4   7
BRANCH   5  16
ATOM     16  O   LIG    1       -0.968  -0.683   3.011  0.00  0.00    -0.530 OA
ATOM     17  H   LIG    1       -0.392  -0.456   3.754  0.00  0.00    +0.380 HD
ENDBRANCH   5  16
BRANCH   6  18
ATOM     18  O   LIG    1        1.877  -1.306   0.880  0.00  0.00    -0.550 OA
ATOM     19  H   LIG    1        2.568  -0.803   0.427  0.00  0.00    +0.380 HD
ENDBRANCH   6  18
TORSDOF 3
ENDMDL
MODEL      159
REMARK  Name = ZINC000008098573
REMARK                            x       y       z     vdW  Elec       q    Type
REMARK                         _______ _______ _______ _____ _____    ______ ____
ROOT
ATOM      1  C   LIG    1       -0.016  -4.213  -0.021  0.00  0.00    +0.250 C 
ATOM      2  O   LIG    1        0.791  -4.718   1.056  0.00  0.00    -0.330 OA
ATOM      3  C   LIG    1        1.398  -5.942   0.590  0.00  0.00    +0.120 C 
ATOM      4  C   LIG    1        1.781  -5.620  -0.877  0.00  0.00    +0.140 C 
ATOM      5  C   LIG    1        0.591  -4.737  -1.337  0.00  0.00    +0.180 C 
ENDROOT
BRANCH   1   9
ATOM      6  C   LIG    1        0.002  -0.004   0.002  0.00  0.00    +0.580 A 
ATOM      7  N   LIG    1       -1.137  -0.667   0.004  0.00  0.00    -0.670 NA
ATOM      8  C   LIG    1       -1.164  -1.998  -0.003  0.00  0.00    +0.320 A 
ATOM      9  C   LIG    1        0.003  -2.706  -0.013  0.00  0.00    -0.400 A 
ATOM     10  C   LIG    1        1.222  -2.006  -0.015  0.00  0.00    +0.530 A 
ATOM     11  O   LIG    1        2.284  -2.607  -0.024  0.00  0.00    -0.620 OA
ATOM     12  N   LIG    1        1.196  -0.656  -0.013  0.00  0.00    -0.710 NA
BRANCH   6  13
ATOM     13  N   LIG    1       -0.017   1.365   0.009  0.00  0.00    -0.840 N 
ATOM     14  H   LIG    1       -0.863   1.838   0.016  0.00  0.00    +0.400 HD
ATOM     15  H   LIG    1        0.817   1.861   0.004  0.00  0.00    +0.400 HD
ENDBRANCH   6  13
ENDBRANCH   1   9
BRANCH   4  16
ATOM     16  O   LIG    1        1.860  -6.814  -1.658  0.00  0.00    -0.560 OA
ATOM     17  H   LIG    1        2.530  -7.440  -1.352  0.00  0.00    +0.380 HD
ENDBRANCH   4  16
BRANCH   5  18
ATOM     18  O   LIG    1       -0.363  -5.519  -2.059  0.00  0.00    -0.560 OA
ATOM     19  H   LIG    1       -0.012  -5.920  -2.866  0.00  0.00    +0.380 HD
ENDBRANCH   5  18
BRANCH   3  20
ATOM     20  C   LIG    1        2.644  -6.274   1.414  0.00  0.00    +0.190 C 
BRANCH  20  21
ATOM     21  O   LIG    1        2.259  -6.579   2.756  0.00  0.00    -0.560 OA
ATOM     22  H   LIG    1        3.000  -6.800   3.337  0.00  0.00    +0.370 HD
ENDBRANCH  20  21
ENDBRANCH   3  20
TORSDOF 6
ENDMDL
MODEL      160
REMARK  Name = ZINC000018152485
REMARK                            x       y       z     vdW  Elec       q    Type
REMARK                         _______ _______ _______ _____ _____    ______ ____
ROOT
ATOM      1  C   LIG    1       -0.018   1.461   0.010  0.00  0.00    +0.330 C 
ATOM      2  N   LIG    1        0.002  -0.004   0.002  0.00  0.00    -0.570 N 
ATOM      3  C   LIG    1        0.005  -0.665  -1.177  0.00  0.00    +0.570 A 
ATOM      4  C   LIG    1        0.025  -2.131  -1.148  0.00  0.00    -0.310 A 
ATOM      5  C   LIG    1        0.040  -2.775   0.090  0.00  0.00    +0.430 A 
ATOM      6  N   LIG    1        0.035  -2.016   1.230  0.00  0.00    -0.540 N 
ATOM      7  C   LIG    1        0.051  -2.676   2.537  0.00  0.00    +0.330 C 
ATOM      8  N   LIG    1        0.058  -4.132   0.149  0.00  0.00    -0.620 N 
ATOM      9  H   LIG    1        0.069  -4.572   1.013  0.00  0.00    +0.400 HD
ATOM     10  C   LIG    1        0.063  -4.874  -0.974  0.00  0.00    +0.530 A 
ATOM     11  C   LIG    1        0.049  -4.273  -2.237  0.00  0.00    -0.350 A 
ATOM     12  O   LIG    1        0.080  -6.091  -0.888  0.00  0.00    -0.610 OA
ATOM     13  C   LIG    1        0.030  -2.895  -2.339  0.00  0.00    +0.360 A 
ATOM     14  O   LIG    1        0.015  -2.290  -3.550  0.00  0.00    -0.650 OA
ATOM     15  O   LIG    1       -0.007  -0.061  -2.233  0.00  0.00    -0.470 OA
ATOM     16  C   LIG    1        0.022  -0.674   1.166  0.00  0.00    +0.710 A 
ATOM     17  O   LIG    1        0.019  -0.041   2.204  0.00  0.00    -0.550 OA
ENDROOT
TORSDOF 0
ENDMDL
MODEL      161
REMARK  Name = ZINC000001470790
REMARK                            x       y       z     vdW  Elec       q    Type
REMARK                         _______ _______ _______ _____ _____    ______ ____
ROOT
ATOM      1  O   LIG    1        0.002  -0.004   0.002  0.00  0.00    -0.540 OA
ATOM      2  C   LIG    1       -0.014   1.212   0.009  0.00  0.00    +0.570 A 
ATOM      3  N   LIG    1       -1.183   1.879   0.029  0.00  0.00    -0.680 NA
ATOM      4  C   LIG    1       -1.222   3.220   0.037  0.00  0.00    +0.670 A 
ATOM      5  N   LIG    1       -0.112   3.972   0.026  0.00  0.00    -0.530 N 
ATOM      6  C   LIG    1        1.160   3.387   0.005  0.00  0.00    +0.350 A 
ATOM      7  N   LIG    1        2.340   3.968  -0.009  0.00  0.00    -0.520 NA
ATOM      8  S   LIG    1        3.490   2.729  -0.032  0.00  0.00    +0.500 S 
ATOM      9  N   LIG    1        2.495   1.529  -0.025  0.00  0.00    -0.470 NA
ATOM     10  O   LIG    1       -2.304   3.773   0.056  0.00  0.00    -0.590 OA
ATOM     11  C   LIG    1        1.256   1.983   0.001  0.00  0.00    -0.030 A 
ENDROOT
BRANCH   5  12
ATOM     12  C   LIG    1       -0.233   5.432   0.036  0.00  0.00    +0.310 C 
BRANCH  12  13
ATOM     13  C   LIG    1       -0.255   5.932   1.482  0.00  0.00    +0.160 C 
BRANCH  13  14
ATOM     14  O   LIG    1        1.002   5.652   2.101  0.00  0.00    -0.560 OA
ATOM     15  H   LIG    1        1.060   5.943   3.022  0.00  0.00    +0.370 HD
ENDBRANCH  13  14
ENDBRANCH  12  13
ENDBRANCH   5  12
TORSDOF 3
ENDMDL
MODEL      162
REMARK  Name = ZINC000095172634
REMARK                            x       y       z     vdW  Elec       q    Type
REMARK                         _______ _______ _______ _____ _____    ______ ____
ROOT
ATOM      1  N   LIG    1       -1.376  -0.512   0.012  0.00  0.00    -0.540 NA
ATOM      2  C   LIG    1       -2.192   0.199   1.006  0.00  0.00    +0.170 C 
ATOM      3  C   LIG    1       -3.656  -0.231   0.861  0.00  0.00    +0.280 C 
ATOM      4  N   LIG    1       -3.722  -1.698   0.937  0.00  0.00    -0.630 N 
ATOM      5  C   LIG    1       -2.832  -2.481   0.067  0.00  0.00    +0.280 C 
ATOM      6  C   LIG    1       -4.577  -2.309   1.782  0.00  0.00    +0.520 C 
ATOM      7  O   LIG    1       -5.304  -1.648   2.492  0.00  0.00    -0.520 OA
ATOM      8  C   LIG    1       -1.400  -1.963   0.243  0.00  0.00    +0.170 C 
ENDROOT
BRANCH   1  10
ATOM      9  C   LIG    1       -0.019   1.526   0.010  0.00  0.00    +0.020 C 
ATOM     10  C   LIG    1        0.002  -0.004   0.002  0.00  0.00    +0.160 C 
ENDBRANCH   1  10
BRANCH   6  11
ATOM     11  C   LIG    1       -4.628  -3.814   1.844  0.00  0.00    +0.180 C 
BRANCH  11  12
ATOM     12  C   LIG    1       -5.657  -4.240   2.859  0.00  0.00    +0.070 A 
ATOM     13  N   LIG    1       -5.451  -4.451   4.147  0.00  0.00    -0.380 NA
ATOM     14  N   LIG    1       -6.576  -4.800   4.671  0.00  0.00    -0.200 NA
ATOM     15  N   LIG    1       -7.478  -4.813   3.751  0.00  0.00    -0.200 NA
ATOM     16  N   LIG    1       -6.938  -4.468   2.632  0.00  0.00    -0.380 NA
ENDBRANCH  11  12
ENDBRANCH   6  11
TORSDOF 3
ENDMDL
MODEL      163
REMARK  Name = ZINC000015107678
REMARK                            x       y       z     vdW  Elec       q    Type
REMARK                         _______ _______ _______ _____ _____    ______ ____
ROOT
ATOM      1  O   LIG    1        0.002  -0.004   0.002  0.00  0.00    -0.580 OA
ATOM      2  C   LIG    1       -0.014   1.214   0.009  0.00  0.00    +0.520 A 
ATOM      3  N   LIG    1       -1.188   1.878   0.029  0.00  0.00    -0.680 NA
ATOM      4  C   LIG    1       -1.205   3.224   0.036  0.00  0.00    +0.650 A 
ATOM      5  N   LIG    1       -0.061   3.931   0.024  0.00  0.00    -0.540 N 
ATOM      6  C   LIG    1        1.152   3.295   0.003  0.00  0.00    +0.290 A 
ATOM      7  O   LIG    1       -2.271   3.809   0.055  0.00  0.00    -0.600 OA
ATOM      8  C   LIG    1        1.199   1.945   0.001  0.00  0.00    -0.220 A 
ATOM      9 CL   LIG    1        2.725   1.118  -0.025  0.00  0.00    -0.080 Cl
ENDROOT
BRANCH   5  10
ATOM     10  C   LIG    1       -0.112   5.395   0.033  0.00  0.00    +0.260 C 
BRANCH  10  11
ATOM     11  C   LIG    1       -0.109   5.897   1.478  0.00  0.00    +0.190 C 
BRANCH  11  12
ATOM     12  O   LIG    1       -1.248   5.376   2.166  0.00  0.00    -0.540 OA
ATOM     13  H   LIG    1       -2.095   5.634   1.776  0.00  0.00    +0.380 HD
ENDBRANCH  11  12
BRANCH  11  14
ATOM     14  C   LIG    1       -0.162   7.426   1.487  0.00  0.00    +0.150 C 
BRANCH  14  15
ATOM     15  O   LIG    1       -0.042   7.898   2.831  0.00  0.00    -0.560 OA
ATOM     16  H   LIG    1       -0.068   8.861   2.913  0.00  0.00    +0.380 HD
ENDBRANCH  14  15
ENDBRANCH  11  14
ENDBRANCH  10  11
ENDBRANCH   5  10
TORSDOF 5
ENDMDL
MODEL      164
REMARK  Name = ZINC000015107681
REMARK                            x       y       z     vdW  Elec       q    Type
REMARK                         _______ _______ _______ _____ _____    ______ ____
ROOT
ATOM      1  O   LIG    1        0.002  -0.004   0.002  0.00  0.00    -0.580 OA
ATOM      2  C   LIG    1       -0.014   1.214   0.009  0.00  0.00    +0.520 A 
ATOM      3  N   LIG    1       -1.188   1.878   0.029  0.00  0.00    -0.680 NA
ATOM      4  C   LIG    1       -1.205   3.224   0.036  0.00  0.00    +0.640 A 
ATOM      5  N   LIG    1       -0.061   3.931   0.024  0.00  0.00    -0.540 N 
ATOM      6  C   LIG    1        1.152   3.295   0.003  0.00  0.00    +0.290 A 
ATOM      7  O   LIG    1       -2.271   3.809   0.055  0.00  0.00    -0.610 OA
ATOM      8  C   LIG    1        1.199   1.945   0.001  0.00  0.00    -0.230 A 
ATOM      9 CL   LIG    1        2.725   1.118  -0.025  0.00  0.00    -0.080 Cl
ENDROOT
BRANCH   5  10
ATOM     10  C   LIG    1       -0.112   5.395   0.033  0.00  0.00    +0.260 C 
BRANCH  10  11
ATOM     11  C   LIG    1       -0.109   5.897   1.478  0.00  0.00    +0.200 C 
BRANCH  11  12
ATOM     12  O   LIG    1        1.134   5.558   2.097  0.00  0.00    -0.540 OA
ATOM     13  H   LIG    1        1.908   5.940   1.661  0.00  0.00    +0.360 HD
ENDBRANCH  11  12
BRANCH  11  14
ATOM     14  C   LIG    1       -0.288   7.416   1.491  0.00  0.00    +0.160 C 
BRANCH  14  15
ATOM     15  O   LIG    1       -0.402   7.871   2.841  0.00  0.00    -0.560 OA
ATOM     16  H   LIG    1       -0.518   8.827   2.925  0.00  0.00    +0.380 HD
ENDBRANCH  14  15
ENDBRANCH  11  14
ENDBRANCH  10  11
ENDBRANCH   5  10
TORSDOF 5
ENDMDL
MODEL      165
REMARK  Name = ZINC000001319177
REMARK                            x       y       z     vdW  Elec       q    Type
REMARK                         _______ _______ _______ _____ _____    ______ ____
ROOT
ATOM      1  C   LIG    1       -0.019   1.526   0.010  0.00  0.00    +0.060 C 
ATOM      2  C   LIG    1        0.002  -0.004   0.002  0.00  0.00    +0.130 C 
ATOM      3  O   LIG    1        0.734  -0.491  -1.144  0.00  0.00    -0.350 OA
ATOM      4  C   LIG    1        1.116  -1.842  -0.806  0.00  0.00    +0.410 C 
ATOM      5  C   LIG    1        1.531  -1.775   0.681  0.00  0.00    +0.180 C 
ATOM      6  C   LIG    1        0.779  -0.538   1.226  0.00  0.00    +0.130 C 
ENDROOT
BRANCH   4   7
ATOM      7  N   LIG    1        2.244  -2.276  -1.634  0.00  0.00    -0.540 N 
ATOM      8  C   LIG    1        2.151  -3.439  -2.353  0.00  0.00    +0.250 A 
ATOM      9  C   LIG    1        3.191  -3.838  -3.116  0.00  0.00    -0.100 A 
ATOM     10  C   LIG    1        4.362  -3.040  -3.156  0.00  0.00    +0.510 A 
ATOM     11  N   LIG    1        4.413  -1.903  -2.433  0.00  0.00    -0.680 NA
ATOM     12  O   LIG    1        5.313  -3.379  -3.837  0.00  0.00    -0.580 OA
ATOM     13  F   LIG    1        3.116  -4.981  -3.832  0.00  0.00    -0.140 F 
ATOM     14  C   LIG    1        3.360  -1.526  -1.685  0.00  0.00    +0.650 A 
ATOM     15  O   LIG    1        3.421  -0.498  -1.039  0.00  0.00    -0.590 OA
ENDBRANCH   4   7
BRANCH   5  16
ATOM     16  O   LIG    1        1.118  -2.957   1.370  0.00  0.00    -0.550 OA
ATOM     17  H   LIG    1        1.353  -2.968   2.308  0.00  0.00    +0.380 HD
ENDBRANCH   5  16
BRANCH   6  18
ATOM     18  O   LIG    1       -0.120  -0.918   2.270  0.00  0.00    -0.550 OA
ATOM     19  H   LIG    1       -0.618  -0.181   2.648  0.00  0.00    +0.380 HD
ENDBRANCH   6  18
TORSDOF 3
ENDMDL
MODEL      166
REMARK  Name = ZINC000001578622
REMARK                            x       y       z     vdW  Elec       q    Type
REMARK                         _______ _______ _______ _____ _____    ______ ____
ROOT
ATOM      1  C   VAL A  1       -2.125  -0.137  -1.266  0.00  0.00    +0.520 C 
ATOM      2  N   SER A  2       -1.909  -0.842  -2.395  0.00  0.00    -0.690 N 
ATOM      3  H   SER A  2       -1.309  -1.603  -2.384  0.00  0.00    +0.390 HD
ATOM      4  O   VAL A  1       -2.875   0.816  -1.280  0.00  0.00    -0.540 OA
ENDROOT
BRANCH   1   5
ATOM      5  CA  VAL A  1       -1.433  -0.534   0.013  0.00  0.00    +0.180 C 
BRANCH   5   7
ATOM      6  CG1 VAL A  1       -0.019   1.526   0.010  0.00  0.00    +0.020 C 
ATOM      7  CB  VAL A  1        0.002  -0.004   0.002  0.00  0.00    -0.050 C 
ATOM      8  CG2 VAL A  1        0.742  -0.511   1.242  0.00  0.00    +0.020 C 
ENDBRANCH   5   7
BRANCH   5   9
ATOM      9  N   VAL A  1       -2.157   0.036   1.157  0.00  0.00    -0.820 NA
ATOM     10  H1  VAL A  1       -2.184   1.043   1.103  0.00  0.00    +0.350 HD
ATOM     11  H2  VAL A  1       -1.751  -0.268   2.030  0.00  0.00    +0.340 HD
ENDBRANCH   5   9
ENDBRANCH   1   5
BRANCH   2  12
ATOM     12  CA  SER A  2       -2.581  -0.456  -3.638  0.00  0.00    +0.160 C 
BRANCH  12  13
ATOM     13  C   SER A  2       -3.952  -1.080  -3.683  0.00  0.00    +0.500 C 
ATOM     14  OXT SER A  2       -4.681  -0.884  -4.640  0.00  0.00    -0.700 OA
ATOM     15  O   SER A  2       -4.333  -1.782  -2.761  0.00  0.00    -0.680 OA
ENDBRANCH  12  13
BRANCH  12  16
ATOM     16  CB  SER A  2       -1.760  -0.943  -4.834  0.00  0.00    +0.190 C 
BRANCH  16  17
ATOM     17  OG  SER A  2       -1.736  -2.372  -4.845  0.00  0.00    -0.560 OA
ATOM     18  H   SER A  2       -1.232  -2.751  -5.577  0.00  0.00    +0.370 HD
ENDBRANCH  16  17
ENDBRANCH  12  16
ENDBRANCH   2  12
TORSDOF 7
ENDMDL
MODEL      167
REMARK  Name = ZINC000001578623
REMARK                            x       y       z     vdW  Elec       q    Type
REMARK                         _______ _______ _______ _____ _____    ______ ____
ROOT
ATOM      1  C   VAL A  1       -2.162  -0.034  -1.208  0.00  0.00    +0.480 C 
ATOM      2  N   SER A  2       -2.660   1.218  -1.230  0.00  0.00    -0.680 N 
ATOM      3  H   SER A  2       -2.549   1.798  -0.461  0.00  0.00    +0.400 HD
ATOM      4  O   VAL A  1       -2.301  -0.759  -2.170  0.00  0.00    -0.560 OA
ENDROOT
BRANCH   1   5
ATOM      5  CA  VAL A  1       -1.433  -0.534   0.013  0.00  0.00    +0.180 C 
BRANCH   5   7
ATOM      6  CG1 VAL A  1       -0.019   1.526   0.010  0.00  0.00    +0.020 C 
ATOM      7  CB  VAL A  1        0.002  -0.004   0.002  0.00  0.00    -0.010 C 
ATOM      8  CG2 VAL A  1        0.742  -0.511   1.242  0.00  0.00    +0.040 C 
ENDBRANCH   5   7
BRANCH   5   9
ATOM      9  N   VAL A  1       -1.413  -2.002   0.005  0.00  0.00    -0.820 NA
ATOM     10  H1  VAL A  1       -0.945  -2.353  -0.817  0.00  0.00    +0.350 HD
ATOM     11  H2  VAL A  1       -2.348  -2.377   0.077  0.00  0.00    +0.350 HD
ENDBRANCH   5   9
ENDBRANCH   1   5
BRANCH   2  12
ATOM     12  CA  SER A  2       -3.369   1.703  -2.417  0.00  0.00    +0.160 C 
BRANCH  12  13
ATOM     13  C   SER A  2       -4.814   1.284  -2.345  0.00  0.00    +0.500 C 
ATOM     14  OXT SER A  2       -5.441   1.078  -3.371  0.00  0.00    -0.700 OA
ATOM     15  O   SER A  2       -5.358   1.152  -1.262  0.00  0.00    -0.680 OA
ENDBRANCH  12  13
BRANCH  12  16
ATOM     16  CB  SER A  2       -3.282   3.230  -2.474  0.00  0.00    +0.190 C 
BRANCH  16  17
ATOM     17  OG  SER A  2       -3.982   3.788  -1.361  0.00  0.00    -0.550 OA
ATOM     18  H   SER A  2       -3.969   4.755  -1.333  0.00  0.00    +0.360 HD
ENDBRANCH  16  17
ENDBRANCH  12  16
ENDBRANCH   2  12
TORSDOF 7
ENDMDL
MODEL      168
REMARK  Name = ZINC000001578624
REMARK                            x       y       z     vdW  Elec       q    Type
REMARK                         _______ _______ _______ _____ _____    ______ ____
ROOT
ATOM      1  C   VAL A  1       -2.125  -0.137  -1.266  0.00  0.00    +0.520 C 
ATOM      2  N   SER A  2       -1.909  -0.842  -2.395  0.00  0.00    -0.690 N 
ATOM      3  H   SER A  2       -1.309  -1.603  -2.384  0.00  0.00    +0.400 HD
ATOM      4  O   VAL A  1       -2.875   0.816  -1.280  0.00  0.00    -0.540 OA
ENDROOT
BRANCH   1   5
ATOM      5  CA  VAL A  1       -1.433  -0.534   0.013  0.00  0.00    +0.170 C 
BRANCH   5   7
ATOM      6  CG1 VAL A  1       -0.019   1.526   0.010  0.00  0.00    +0.030 C 
ATOM      7  CB  VAL A  1        0.002  -0.004   0.002  0.00  0.00    -0.040 C 
ATOM      8  CG2 VAL A  1        0.742  -0.511   1.242  0.00  0.00    +0.030 C 
ENDBRANCH   5   7
BRANCH   5   9
ATOM      9  N   VAL A  1       -2.157   0.036   1.157  0.00  0.00    -0.830 NA
ATOM     10  H1  VAL A  1       -2.184   1.043   1.103  0.00  0.00    +0.350 HD
ATOM     11  H2  VAL A  1       -1.751  -0.268   2.030  0.00  0.00    +0.340 HD
ENDBRANCH   5   9
ENDBRANCH   1   5
BRANCH   2  12
ATOM     12  CA  SER A  2       -2.581  -0.456  -3.638  0.00  0.00    +0.160 C 
BRANCH  12  13
ATOM     13  C   SER A  2       -1.782   0.619  -4.329  0.00  0.00    +0.500 C 
ATOM     14  OXT SER A  2       -2.347   1.448  -5.022  0.00  0.00    -0.700 OA
ATOM     15  O   SER A  2       -0.571   0.660  -4.194  0.00  0.00    -0.680 OA
ENDBRANCH  12  13
BRANCH  12  16
ATOM     16  CB  SER A  2       -2.695  -1.675  -4.556  0.00  0.00    +0.190 C 
BRANCH  16  17
ATOM     17  OG  SER A  2       -1.388  -2.099  -4.948  0.00  0.00    -0.550 OA
ATOM     18  H   SER A  2       -1.383  -2.870  -5.532  0.00  0.00    +0.360 HD
ENDBRANCH  16  17
ENDBRANCH  12  16
ENDBRANCH   2  12
TORSDOF 7
ENDMDL
MODEL      169
REMARK  Name = ZINC000002601206
REMARK                            x       y       z     vdW  Elec       q    Type
REMARK                         _______ _______ _______ _____ _____    ______ ____
ROOT
ATOM      1  C   LIG    1       -0.019   1.526   0.010  0.00  0.00    +0.050 C 
ATOM      2  C   LIG    1        0.002  -0.004   0.002  0.00  0.00    +0.240 C 
ATOM      3  N   LIG    1        0.667  -0.465  -1.209  0.00  0.00    -0.730 N 
ATOM      4  H   LIG    1        0.168  -0.466  -2.041  0.00  0.00    +0.390 HD
ATOM      5  C   LIG    1        1.935  -0.888  -1.224  0.00  0.00    +0.500 C 
ATOM      6  C   LIG    1        2.790  -0.928   0.007  0.00  0.00    +0.340 C 
ATOM      7  N   LIG    1        1.978  -0.910   1.216  0.00  0.00    -0.700 N 
ATOM      8  H   LIG    1        2.376  -1.214   2.046  0.00  0.00    +0.400 HD
ATOM      9  O   LIG    1        3.579  -2.119  -0.010  0.00  0.00    -0.780 OA
ATOM     10  O   LIG    1        2.413  -1.255  -2.276  0.00  0.00    -0.520 OA
ATOM     11  C   LIG    1        0.710  -0.492   1.230  0.00  0.00    +0.510 C 
ATOM     12  O   LIG    1        0.104  -0.508   2.281  0.00  0.00    -0.570 OA
ENDROOT
BRANCH   6  13
ATOM     13  C   LIG    1        3.719   0.288   0.010  0.00  0.00    +0.410 C 
ATOM     14  F   LIG    1        4.531   0.257  -1.129  0.00  0.00    -0.180 F 
ATOM     15  F   LIG    1        4.521   0.259   1.156  0.00  0.00    -0.190 F 
ATOM     16  F   LIG    1        2.954   1.459   0.006  0.00  0.00    -0.210 F 
ENDBRANCH   6  13
TORSDOF 1
ENDMDL
MODEL      170
REMARK  Name = ZINC000002601204
REMARK                            x       y       z     vdW  Elec       q    Type
REMARK                         _______ _______ _______ _____ _____    ______ ____
ROOT
ATOM      1  C   LIG    1       -0.019   1.526   0.010  0.00  0.00    +0.060 C 
ATOM      2  C   LIG    1        0.002  -0.004   0.002  0.00  0.00    +0.230 C 
ATOM      3  N   LIG    1        0.667  -0.465  -1.209  0.00  0.00    -0.720 N 
ATOM      4  H   LIG    1        0.491   0.001  -2.041  0.00  0.00    +0.390 HD
ATOM      5  C   LIG    1        1.509  -1.503  -1.223  0.00  0.00    +0.500 C 
ATOM      6  C   LIG    1        1.848  -2.288   0.008  0.00  0.00    +0.340 C 
ATOM      7  N   LIG    1        1.546  -1.534   1.216  0.00  0.00    -0.700 N 
ATOM      8  H   LIG    1        1.972  -1.798   2.047  0.00  0.00    +0.400 HD
ATOM      9  O   LIG    1        3.241  -2.607  -0.009  0.00  0.00    -0.780 OA
ATOM     10  O   LIG    1        2.020  -1.823  -2.276  0.00  0.00    -0.520 OA
ATOM     11  C   LIG    1        0.710  -0.492   1.230  0.00  0.00    +0.510 C 
ATOM     12  O   LIG    1        0.513   0.081   2.280  0.00  0.00    -0.570 OA
ENDROOT
BRANCH   6  13
ATOM     13  C   LIG    1        1.037  -3.586   0.013  0.00  0.00    +0.410 C 
ATOM     14  F   LIG    1       -0.328  -3.282   0.010  0.00  0.00    -0.210 F 
ATOM     15  F   LIG    1        1.348  -4.325   1.160  0.00  0.00    -0.190 F 
ATOM     16  F   LIG    1        1.351  -4.337  -1.125  0.00  0.00    -0.180 F 
ENDBRANCH   6  13
TORSDOF 1
ENDMDL
MODEL      171
REMARK  Name = ZINC000002601205
REMARK                            x       y       z     vdW  Elec       q    Type
REMARK                         _______ _______ _______ _____ _____    ______ ____
ROOT
ATOM      1  C   LIG    1       -0.019   1.526   0.010  0.00  0.00    +0.060 C 
ATOM      2  C   LIG    1        0.002  -0.004   0.002  0.00  0.00    +0.230 C 
ATOM      3  N   LIG    1       -1.368  -0.500  -0.009  0.00  0.00    -0.720 N 
ATOM      4  H   LIG    1       -2.023  -0.041  -0.558  0.00  0.00    +0.390 HD
ATOM      5  C   LIG    1       -1.761  -1.559   0.706  0.00  0.00    +0.500 C 
ATOM      6  C   LIG    1       -0.828  -2.334   1.586  0.00  0.00    +0.340 C 
ATOM      7  N   LIG    1        0.357  -1.554   1.918  0.00  0.00    -0.700 N 
ATOM      8  H   LIG    1        0.884  -1.816   2.689  0.00  0.00    +0.400 HD
ATOM      9  O   LIG    1       -1.508  -2.688   2.792  0.00  0.00    -0.780 OA
ATOM     10  O   LIG    1       -2.921  -1.907   0.639  0.00  0.00    -0.520 OA
ATOM     11  C   LIG    1        0.747  -0.491   1.208  0.00  0.00    +0.510 C 
ATOM     12  O   LIG    1        1.747   0.102   1.552  0.00  0.00    -0.570 OA
ENDROOT
BRANCH   6  13
ATOM     13  C   LIG    1       -0.398  -3.610   0.860  0.00  0.00    +0.410 C 
ATOM     14  F   LIG    1       -1.526  -4.386   0.572  0.00  0.00    -0.180 F 
ATOM     15  F   LIG    1        0.474  -4.340   1.675  0.00  0.00    -0.190 F 
ATOM     16  F   LIG    1        0.252  -3.272  -0.332  0.00  0.00    -0.210 F 
ENDBRANCH   6  13
TORSDOF 1
ENDMDL
MODEL      172
REMARK  Name = ZINC000001644619
REMARK                            x       y       z     vdW  Elec       q    Type
REMARK                         _______ _______ _______ _____ _____    ______ ____
ROOT
ATOM      1  C   VAL A  1       -1.413  -2.041   0.005  0.00  0.00    +0.480 C 
ATOM      2  N   GLY A  2       -1.190  -2.718   1.148  0.00  0.00    -0.710 N 
ATOM      3  H   GLY A  2       -1.043  -2.235   1.977  0.00  0.00    +0.410 HD
ATOM      4  O   VAL A  1       -1.597  -2.644  -1.031  0.00  0.00    -0.550 OA
ENDROOT
BRANCH   1   5
ATOM      5  CA  VAL A  1       -1.433  -0.534   0.013  0.00  0.00    +0.180 C 
BRANCH   5   7
ATOM      6  CG1 VAL A  1       -0.019   1.526   0.010  0.00  0.00    +0.030 C 
ATOM      7  CB  VAL A  1        0.002  -0.004   0.002  0.00  0.00    -0.010 C 
ATOM      8  CG2 VAL A  1        0.742  -0.511   1.242  0.00  0.00    +0.020 C 
ENDBRANCH   5   7
BRANCH   5   9
ATOM      9  N   VAL A  1       -2.144  -0.047  -1.177  0.00  0.00    -0.820 NA
ATOM     10  H1  VAL A  1       -3.112  -0.330  -1.161  0.00  0.00    +0.350 HD
ATOM     11  H2  VAL A  1       -1.690  -0.360  -2.022  0.00  0.00    +0.350 HD
ENDBRANCH   5   9
ENDBRANCH   1   5
BRANCH   2  12
ATOM     12  CA  GLY A  2       -1.170  -4.183   1.140  0.00  0.00    +0.300 C 
BRANCH  12  13
ATOM     13  C   GLY A  2       -0.903  -4.689   2.534  0.00  0.00    +0.500 C 
ATOM     14  N   GLY A  3       -0.840  -6.015   2.769  0.00  0.00    -0.690 N 
ATOM     15  H   GLY A  3       -0.967  -6.643   2.041  0.00  0.00    +0.410 HD
ATOM     16  O   GLY A  2       -0.745  -3.904   3.445  0.00  0.00    -0.560 OA
BRANCH  14  17
ATOM     17  CA  GLY A  3       -0.581  -6.507   4.124  0.00  0.00    +0.190 C 
BRANCH  17  18
ATOM     18  C   GLY A  3       -0.560  -8.014   4.116  0.00  0.00    +0.490 C 
ATOM     19  OXT GLY A  3       -0.359  -8.626   5.151  0.00  0.00    -0.690 OA
ATOM     20  O   GLY A  3       -0.746  -8.620   3.075  0.00  0.00    -0.690 OA
ENDBRANCH  17  18
ENDBRANCH  14  17
ENDBRANCH  12  13
ENDBRANCH   2  12
TORSDOF 7
ENDMDL
MODEL      173
REMARK  Name = ZINC000075260600
REMARK                            x       y       z     vdW  Elec       q    Type
REMARK                         _______ _______ _______ _____ _____    ______ ____
ROOT
ATOM      1  C   LIG    1       -0.018   1.503   0.010  0.00  0.00    +0.070 C 
ATOM      2  C   LIG    1        0.002  -0.004   0.002  0.00  0.00    -0.440 A 
ATOM      3  C   LIG    1       -1.183  -0.715   0.004  0.00  0.00    +0.360 A 
ATOM      4  C   LIG    1       -1.122  -2.129  -0.005  0.00  0.00    -0.310 A 
ATOM      5  C   LIG    1        0.118  -2.769  -0.015  0.00  0.00    +0.430 A 
ATOM      6  N   LIG    1        0.154  -4.138  -0.023  0.00  0.00    -0.540 N 
ATOM      7  C   LIG    1       -0.979  -4.860  -0.022  0.00  0.00    +0.710 A 
ATOM      8  N   LIG    1       -2.198  -4.294  -0.012  0.00  0.00    -0.570 N 
ATOM      9  C   LIG    1       -3.390  -5.145  -0.011  0.00  0.00    +0.340 C 
ATOM     10  O   LIG    1       -0.899  -6.072  -0.029  0.00  0.00    -0.560 OA
ATOM     11  C   LIG    1        1.447  -4.827  -0.033  0.00  0.00    +0.330 C 
ATOM     12  N   LIG    1        1.261  -2.036  -0.016  0.00  0.00    -0.620 N 
ATOM     13  H   LIG    1        2.119  -2.488  -0.023  0.00  0.00    +0.400 HD
ATOM     14  C   LIG    1       -2.336  -2.950  -0.004  0.00  0.00    +0.570 A 
ATOM     15  O   LIG    1       -3.439  -2.435   0.005  0.00  0.00    -0.470 OA
ATOM     16  O   LIG    1       -2.375  -0.074   0.013  0.00  0.00    -0.640 OA
ATOM     17  C   LIG    1        1.221  -0.691  -0.013  0.00  0.00    +0.530 A 
ATOM     18  O   LIG    1        2.265  -0.060  -0.015  0.00  0.00    -0.600 OA
ENDROOT
TORSDOF 0
ENDMDL
MODEL      174
REMARK  Name = ZINC000004761956
REMARK                            x       y       z     vdW  Elec       q    Type
REMARK                         _______ _______ _______ _____ _____    ______ ____
ROOT
ATOM      1  C   UNK A  1        0.657  -2.014   1.298  0.00  0.00    +0.480 C 
ATOM      2  N   THR A  2       -0.460  -2.609   1.763  0.00  0.00    -0.690 N 
ATOM      3  H   THR A  2       -1.208  -2.069   2.061  0.00  0.00    +0.390 HD
ATOM      4  O   UNK A  1        1.593  -2.689   0.925  0.00  0.00    -0.550 OA
ENDROOT
BRANCH   1   5
ATOM      5  C   UNK A  1        0.742  -0.511   1.242  0.00  0.00    +0.180 C 
BRANCH   5   6
ATOM      6  N   UNK A  1        2.151  -0.103   1.171  0.00  0.00    -0.820 NA
ATOM      7  H   UNK A  1        2.598  -0.483   0.350  0.00  0.00    +0.350 HD
ATOM      8  H   UNK A  1        2.647  -0.370   2.009  0.00  0.00    +0.350 HD
ENDBRANCH   5   6
BRANCH   5  10
ATOM      9  C   UNK A  1       -0.019   1.526   0.010  0.00  0.00    +0.030 C 
ATOM     10  C   UNK A  1        0.002  -0.004   0.002  0.00  0.00    +0.030 C 
ENDBRANCH   5  10
ENDBRANCH   1   5
BRANCH   2  11
ATOM     11  CA  THR A  2       -0.543  -4.071   1.817  0.00  0.00    +0.170 C 
BRANCH  11  12
ATOM     12  C   THR A  2        0.079  -4.562   3.099  0.00  0.00    +0.500 C 
ATOM     13  OXT THR A  2        0.610  -5.658   3.139  0.00  0.00    -0.680 OA
ATOM     14  O   THR A  2        0.050  -3.862   4.098  0.00  0.00    -0.700 OA
ENDBRANCH  11  12
BRANCH  11  15
ATOM     15  CB  THR A  2       -2.010  -4.501   1.764  0.00  0.00    +0.160 C 
ATOM     16  CG2 THR A  2       -2.641  -4.002   0.463  0.00  0.00    -0.010 C 
BRANCH  15  17
ATOM     17  OG1 THR A  2       -2.091  -5.926   1.818  0.00  0.00    -0.540 OA
ATOM     18  HG1 THR A  2       -2.994  -6.270   1.789  0.00  0.00    +0.370 HD
ENDBRANCH  15  17
ENDBRANCH  11  15
ENDBRANCH   2  11
TORSDOF 7
ENDMDL
MODEL      175
REMARK  Name = ZINC000004761950
REMARK                            x       y       z     vdW  Elec       q    Type
REMARK                         _______ _______ _______ _____ _____    ______ ____
ROOT
ATOM      1  C   UNK A  1        0.657  -2.014   1.298  0.00  0.00    +0.480 C 
ATOM      2  N   THR A  2       -0.460  -2.609   1.763  0.00  0.00    -0.680 N 
ATOM      3  H   THR A  2       -1.208  -2.069   2.061  0.00  0.00    +0.390 HD
ATOM      4  O   UNK A  1        1.593  -2.689   0.925  0.00  0.00    -0.560 OA
ENDROOT
BRANCH   1   5
ATOM      5  C   UNK A  1        0.742  -0.511   1.242  0.00  0.00    +0.170 C 
BRANCH   5   6
ATOM      6  N   UNK A  1        2.151  -0.103   1.171  0.00  0.00    -0.820 NA
ATOM      7  H   UNK A  1        2.598  -0.483   0.350  0.00  0.00    +0.350 HD
ATOM      8  H   UNK A  1        2.647  -0.370   2.009  0.00  0.00    +0.340 HD
ENDBRANCH   5   6
BRANCH   5  10
ATOM      9  C   UNK A  1       -0.019   1.526   0.010  0.00  0.00    +0.020 C 
ATOM     10  C   UNK A  1        0.002  -0.004   0.002  0.00  0.00    +0.030 C 
ENDBRANCH   5  10
ENDBRANCH   1   5
BRANCH   2  11
ATOM     11  CA  THR A  2       -0.543  -4.071   1.817  0.00  0.00    +0.170 C 
BRANCH  11  12
ATOM     12  C   THR A  2       -0.992  -4.599   0.479  0.00  0.00    +0.500 C 
ATOM     13  OXT THR A  2       -1.126  -5.799   0.311  0.00  0.00    -0.700 OA
ATOM     14  O   THR A  2       -1.222  -3.826  -0.435  0.00  0.00    -0.680 OA
ENDBRANCH  11  12
BRANCH  11  15
ATOM     15  CB  THR A  2       -1.549  -4.485   2.893  0.00  0.00    +0.180 C 
ATOM     16  CG2 THR A  2       -1.161  -3.845   4.228  0.00  0.00    -0.010 C 
BRANCH  15  17
ATOM     17  OG1 THR A  2       -2.856  -4.045   2.517  0.00  0.00    -0.550 OA
ATOM     18  HG1 THR A  2       -3.546  -4.274   3.155  0.00  0.00    +0.370 HD
ENDBRANCH  15  17
ENDBRANCH  11  15
ENDBRANCH   2  11
TORSDOF 7
ENDMDL
MODEL      176
REMARK  Name = ZINC000242273691
REMARK                            x       y       z     vdW  Elec       q    Type
REMARK                         _______ _______ _______ _____ _____    ______ ____
ROOT
ATOM      1  C   LIG    1       -2.744   3.846   0.243  0.00  0.00    +0.220 C 
ATOM      2  C   LIG    1       -3.248   4.086   1.669  0.00  0.00    +0.010 C 
ATOM      3  C   LIG    1       -4.517   4.940   1.618  0.00  0.00    +0.190 C 
ATOM      4  N   LIG    1       -4.222   6.220   0.962  0.00  0.00    -0.530 NA
ATOM      5  C   LIG    1       -3.781   6.017  -0.424  0.00  0.00    +0.170 C 
ATOM      6  C   LIG    1       -2.490   5.196  -0.434  0.00  0.00    +0.030 C 
ENDROOT
BRANCH   1   8
ATOM      7  C   LIG    1       -1.536   1.733   0.355  0.00  0.00    +0.450 C 
ATOM      8  N   LIG    1       -1.497   3.078   0.288  0.00  0.00    -0.720 N 
ATOM      9  H   LIG    1       -0.643   3.538   0.269  0.00  0.00    +0.400 HD
ATOM     10  O   LIG    1       -2.604   1.157   0.379  0.00  0.00    -0.550 OA
BRANCH   7  12
ATOM     11  O   LIG    1       -0.297  -0.270   0.462  0.00  0.00    -0.650 OA
ATOM     12  C   LIG    1       -0.262   0.948   0.401  0.00  0.00    +0.500 C 
ATOM     13  O   LIG    1        0.812   1.527   0.372  0.00  0.00    -0.670 OA
ENDBRANCH   7  12
ENDBRANCH   1   8
BRANCH   4  14
ATOM     14  C   LIG    1       -5.381   7.121   1.019  0.00  0.00    +0.220 C 
BRANCH  14  15
ATOM     15  C   LIG    1       -6.428   6.670  -0.002  0.00  0.00    +0.120 C 
BRANCH  15  16
ATOM     16  O   LIG    1       -6.951   5.398   0.383  0.00  0.00    -0.560 OA
ATOM     17  H   LIG    1       -7.622   5.050  -0.220  0.00  0.00    +0.370 HD
ENDBRANCH  15  16
ENDBRANCH  14  15
ENDBRANCH   4  14
TORSDOF 5
ENDMDL
MODEL      177
REMARK  Name = ZINC000075283730
REMARK                            x       y       z     vdW  Elec       q    Type
REMARK                         _______ _______ _______ _____ _____    ______ ____
ROOT
ATOM      1  O   LIG    1       -0.005   0.017   0.254  0.00  0.00    -0.490 OA
ATOM      2  C   LIG    1       -0.015   1.212   0.042  0.00  0.00    +0.430 C 
ENDROOT
BRANCH   2   3
ATOM      3  C   LIG    1       -1.284   1.905  -0.179  0.00  0.00    -0.400 A 
ATOM      4  C   LIG    1       -2.487   1.219  -0.145  0.00  0.00    +0.390 A 
ATOM      5  N   LIG    1       -3.644   1.896  -0.354  0.00  0.00    -0.650 N 
ATOM      6  H   LIG    1       -4.486   1.415  -0.330  0.00  0.00    +0.400 HD
ATOM      7  C   LIG    1       -3.650   3.217  -0.594  0.00  0.00    +0.640 A 
ATOM      8  N   LIG    1       -2.520   3.942  -0.640  0.00  0.00    -0.690 NA
ATOM      9  O   LIG    1       -4.714   3.775  -0.774  0.00  0.00    -0.610 OA
ATOM     10  C   LIG    1       -1.321   3.355  -0.438  0.00  0.00    +0.530 A 
ATOM     11  O   LIG    1       -0.295   4.007  -0.478  0.00  0.00    -0.580 OA
ENDBRANCH   2   3
BRANCH   2  12
ATOM     12  C   LIG    1        1.280   1.981   0.001  0.00  0.00    +0.220 C 
BRANCH  12  13
ATOM     13  N   LIG    1        2.408   1.045   0.105  0.00  0.00    -0.530 NA
ATOM     14  C   LIG    1        3.674   1.766   0.306  0.00  0.00    +0.150 C 
ATOM     15  C   LIG    1        4.811   0.754   0.470  0.00  0.00    +0.220 C 
ATOM     16  O   LIG    1        4.850  -0.100  -0.676  0.00  0.00    -0.390 OA
ATOM     17  C   LIG    1        3.634  -0.818  -0.902  0.00  0.00    +0.220 C 
ATOM     18  C   LIG    1        2.485   0.178  -1.079  0.00  0.00    +0.150 C 
ENDBRANCH  12  13
ENDBRANCH   2  12
TORSDOF 3
ENDMDL
MODEL      178
REMARK  Name = ZINC000002164056
REMARK                            x       y       z     vdW  Elec       q    Type
REMARK                         _______ _______ _______ _____ _____    ______ ____
ROOT
ATOM      1  C   VAL A  1       -1.413  -2.041   0.005  0.00  0.00    +0.520 C 
ATOM      2  N   GLY A  2       -1.212  -2.705  -1.150  0.00  0.00    -0.710 N 
ATOM      3  H   GLY A  2       -1.081  -2.214  -1.976  0.00  0.00    +0.410 HD
ATOM      4  O   VAL A  1       -1.577  -2.655   1.037  0.00  0.00    -0.530 OA
ENDROOT
BRANCH   1   5
ATOM      5  CA  VAL A  1       -1.433  -0.534   0.013  0.00  0.00    +0.180 C 
BRANCH   5   7
ATOM      6  CG1 VAL A  1       -0.019   1.526   0.010  0.00  0.00    +0.020 C 
ATOM      7  CB  VAL A  1        0.002  -0.004   0.002  0.00  0.00    -0.050 C 
ATOM      8  CG2 VAL A  1        0.742  -0.511   1.242  0.00  0.00    +0.030 C 
ENDBRANCH   5   7
BRANCH   5   9
ATOM      9  N   VAL A  1       -2.121  -0.060   1.222  0.00  0.00    -0.830 NA
ATOM     10  H1  VAL A  1       -2.205   0.946   1.219  0.00  0.00    +0.350 HD
ATOM     11  H2  VAL A  1       -1.651  -0.382   2.054  0.00  0.00    +0.350 HD
ENDBRANCH   5   9
ENDBRANCH   1   5
BRANCH   2  12
ATOM     12  CA  GLY A  2       -1.192  -4.170  -1.159  0.00  0.00    +0.300 C 
BRANCH  12  13
ATOM     13  C   GLY A  2       -0.952  -4.662  -2.563  0.00  0.00    +0.500 C 
ATOM     14  N   GLY A  3       -0.894  -5.985  -2.813  0.00  0.00    -0.690 N 
ATOM     15  H   GLY A  3       -1.006  -6.621  -2.089  0.00  0.00    +0.410 HD
ATOM     16  O   GLY A  2       -0.811  -3.866  -3.468  0.00  0.00    -0.560 OA
BRANCH  14  17
ATOM     17  CA  GLY A  3       -0.660  -6.462  -4.178  0.00  0.00    +0.190 C 
BRANCH  17  18
ATOM     18  C   GLY A  3       -0.640  -7.969  -4.186  0.00  0.00    +0.490 C 
ATOM     19  OXT GLY A  3       -0.458  -8.571  -5.231  0.00  0.00    -0.690 OA
ATOM     20  O   GLY A  3       -0.805  -8.587  -3.148  0.00  0.00    -0.690 OA
ENDBRANCH  17  18
ENDBRANCH  14  17
ENDBRANCH  12  13
ENDBRANCH   2  12
TORSDOF 7
ENDMDL
MODEL      179
REMARK  Name = ZINC000002216763
REMARK                            x       y       z     vdW  Elec       q    Type
REMARK                         _______ _______ _______ _____ _____    ______ ____
ROOT
ATOM      1  C   LIG    1       -3.734   1.664   0.029  0.00  0.00    +0.200 C 
ATOM      2  C   LIG    1       -4.157   2.001  -1.425  0.00  0.00    -0.330 C 
ATOM      3  S   LIG    1       -5.960   2.291  -1.213  0.00  0.00    +2.390 S 
ATOM      4  C   LIG    1       -6.191   0.999   0.066  0.00  0.00    -0.350 C 
ATOM      5  O   LIG    1       -6.646   1.919  -2.401  0.00  0.00    -0.940 OA
ATOM      6  O   LIG    1       -6.173   3.573  -0.640  0.00  0.00    -0.930 OA
ATOM      7  C   LIG    1       -4.792   0.746   0.643  0.00  0.00    +0.220 C 
ENDROOT
BRANCH   1   8
ATOM      8  N   LIG    1       -2.433   0.981   0.019  0.00  0.00    -0.640 NA
ATOM      9  H   LIG    1       -2.361   0.351  -0.766  0.00  0.00    +0.350 HD
BRANCH   8  10
ATOM     10  C   LIG    1       -1.330   1.951   0.019  0.00  0.00    +0.090 C 
BRANCH  10  12
ATOM     11  O   LIG    1        0.002  -0.004   0.002  0.00  0.00    -0.680 OA
ATOM     12  C   LIG    1       -0.015   1.215   0.009  0.00  0.00    +0.490 C 
ATOM     13  O   LIG    1        1.033   1.839   0.002  0.00  0.00    -0.700 OA
ENDBRANCH  10  12
ENDBRANCH   8  10
ENDBRANCH   1   8
BRANCH   7  14
ATOM     14  O   LIG    1       -4.826   0.969   2.055  0.00  0.00    -0.550 OA
ATOM     15  H   LIG    1       -5.427   0.381   2.531  0.00  0.00    +0.380 HD
ENDBRANCH   7  14
TORSDOF 4
ENDMDL
MODEL      180
REMARK  Name = ZINC000000968614
REMARK                            x       y       z     vdW  Elec       q    Type
REMARK                         _______ _______ _______ _____ _____    ______ ____
ROOT
ATOM      1  O   LIG    1        0.002  -0.004   0.002  0.00  0.00    -0.460 OA
ATOM      2  C   LIG    1       -0.014   1.210   0.009  0.00  0.00    +0.560 C 
ATOM      3  N   LIG    1        1.143   1.900   0.001  0.00  0.00    -0.630 N 
ATOM      4  H   LIG    1        1.130   2.870   0.007  0.00  0.00    +0.430 HD
ENDROOT
BRANCH   2   5
ATOM      5  C   LIG    1       -1.308   1.934   0.019  0.00  0.00    +0.120 A 
ATOM      6  C   LIG    1       -1.334   3.293   0.021  0.00  0.00    -0.120 A 
ATOM      7  C   LIG    1       -2.638   3.966   0.030  0.00  0.00    +0.510 A 
ATOM      8  N   LIG    1       -3.758   3.215   0.037  0.00  0.00    -0.680 NA
ATOM      9  C   LIG    1       -3.678   1.873   0.035  0.00  0.00    +0.650 A 
ATOM     10  O   LIG    1       -4.703   1.219   0.040  0.00  0.00    -0.600 OA
ATOM     11  O   LIG    1       -2.707   5.181   0.032  0.00  0.00    -0.590 OA
ATOM     12  N   LIG    1       -2.496   1.235   0.021  0.00  0.00    -0.650 N 
ATOM     13  H   LIG    1       -2.478   0.265   0.019  0.00  0.00    +0.400 HD
ENDBRANCH   2   5
BRANCH   3  14
ATOM     14  C   LIG    1        2.349   1.226  -0.014  0.00  0.00    +0.410 C 
ATOM     15  N   LIG    1        2.478  -0.051  -0.028  0.00  0.00    -0.530 NA
ATOM     16  C   LIG    1        3.798  -0.641  -0.043  0.00  0.00    +0.250 C 
ATOM     17  C   LIG    1        4.891   0.440  -0.041  0.00  0.00    +0.110 C 
ATOM     18  S   LIG    1        3.941   1.994  -0.025  0.00  0.00    -0.180 S 
ENDBRANCH   3  14
TORSDOF 2
ENDMDL
MODEL      181
REMARK  Name = ZINC000001842506
REMARK                            x       y       z     vdW  Elec       q    Type
REMARK                         _______ _______ _______ _____ _____    ______ ____
ROOT
ATOM      1  O   LIG    1        0.002  -0.004   0.002  0.00  0.00    -0.590 OA
ATOM      2  C   LIG    1       -0.014   1.214   0.009  0.00  0.00    +0.510 A 
ATOM      3  N   LIG    1       -1.188   1.878   0.029  0.00  0.00    -0.680 NA
ATOM      4  C   LIG    1       -1.206   3.224   0.037  0.00  0.00    +0.650 A 
ATOM      5  N   LIG    1       -0.062   3.932   0.025  0.00  0.00    -0.560 N 
ATOM      6  C   LIG    1        1.153   3.295   0.004  0.00  0.00    +0.240 A 
ATOM      7  O   LIG    1       -2.272   3.808   0.056  0.00  0.00    -0.590 OA
ATOM      8  C   LIG    1        1.199   1.946   0.001  0.00  0.00    -0.100 A 
ATOM      9  F   LIG    1        2.387   1.302  -0.019  0.00  0.00    -0.140 F 
ENDROOT
BRANCH   5  10
ATOM     10  C   LIG    1       -0.114   5.396   0.034  0.00  0.00    +0.470 C 
BRANCH  10  11
ATOM     11  O   LIG    1       -0.460   5.851   1.343  0.00  0.00    -0.370 OA
BRANCH  11  12
ATOM     12  C   LIG    1        0.634   5.864   2.263  0.00  0.00    +0.170 C 
BRANCH  12  13
ATOM     13  C   LIG    1        0.149   6.367   3.625  0.00  0.00    +0.190 C 
BRANCH  13  14
ATOM     14  O   LIG    1       -0.791   5.438   4.168  0.00  0.00    -0.560 OA
ATOM     15  H   LIG    1       -1.141   5.693   5.033  0.00  0.00    +0.370 HD
ENDBRANCH  13  14
ENDBRANCH  12  13
ENDBRANCH  11  12
ENDBRANCH  10  11
ENDBRANCH   5  10
TORSDOF 5
ENDMDL
MODEL      182
REMARK  Name = ZINC000002504612
REMARK                            x       y       z     vdW  Elec       q    Type
REMARK                         _______ _______ _______ _____ _____    ______ ____
ROOT
ATOM      1  CA  GLN A  2        0.738  -0.999  -3.621  0.00  0.00    +0.150 C 
ENDROOT
BRANCH   1   3
ATOM      2  C   ALA A  1        0.707  -0.490  -1.238  0.00  0.00    +0.480 C 
ATOM      3  N   GLN A  2        0.053  -0.526  -2.415  0.00  0.00    -0.690 N 
ATOM      4  H   GLN A  2       -0.873  -0.239  -2.465  0.00  0.00    +0.390 HD
ATOM      5  O   ALA A  1        1.864  -0.849  -1.176  0.00  0.00    -0.550 OA
BRANCH   2   7
ATOM      6  CB  ALA A  1       -0.019   1.526   0.010  0.00  0.00    +0.060 C 
ATOM      7  CA  ALA A  1        0.002  -0.004   0.002  0.00  0.00    +0.160 C 
BRANCH   7   8
ATOM      8  N   ALA A  1        0.713  -0.491   1.192  0.00  0.00    -0.820 NA
ATOM      9  H1  ALA A  1        1.664  -0.154   1.208  0.00  0.00    +0.350 HD
ATOM     10  H2  ALA A  1        0.684  -1.498   1.243  0.00  0.00    +0.340 HD
ENDBRANCH   7   8
ENDBRANCH   2   7
ENDBRANCH   1   3
BRANCH   1  11
ATOM     11  C   GLN A  2        1.501   0.142  -4.244  0.00  0.00    +0.490 C 
ATOM     12  OXT GLN A  2        2.145  -0.041  -5.263  0.00  0.00    -0.700 OA
ATOM     13  O   GLN A  2        1.474   1.247  -3.730  0.00  0.00    -0.680 OA
ENDBRANCH   1  11
BRANCH   1  14
ATOM     14  CB  GLN A  2       -0.292  -1.529  -4.619  0.00  0.00    +0.070 C 
BRANCH  14  15
ATOM     15  CG  GLN A  2       -0.980  -2.764  -4.034  0.00  0.00    +0.040 C 
BRANCH  15  16
ATOM     16  CD  GLN A  2       -1.996  -3.287  -5.018  0.00  0.00    +0.510 C 
ATOM     17  OE1 GLN A  2       -2.154  -2.726  -6.081  0.00  0.00    -0.540 OA
ATOM     18  NE2 GLN A  2       -2.728  -4.377  -4.715  0.00  0.00    -0.860 N 
ATOM     19 HE21 GLN A  2       -3.381  -4.713  -5.348  0.00  0.00    +0.400 HD
ATOM     20 HE22 GLN A  2       -2.602  -4.825  -3.864  0.00  0.00    +0.400 HD
ENDBRANCH  15  16
ENDBRANCH  14  15
ENDBRANCH   1  14
TORSDOF 7
ENDMDL
MODEL      183
REMARK  Name = ZINC000003830846
REMARK                            x       y       z     vdW  Elec       q    Type
REMARK                         _______ _______ _______ _____ _____    ______ ____
ROOT
ATOM      1  C1* LIG    1       -0.114   5.396   0.034  0.00  0.00    +0.400 C 
ATOM      2  C2* LIG    1       -0.828   5.925  -1.235  0.00  0.00    +0.020 C 
ATOM      3  C3* LIG    1       -0.241   7.351  -1.367  0.00  0.00    +0.160 C 
ATOM      4  C4* LIG    1        1.069   7.297  -0.557  0.00  0.00    +0.180 C 
ATOM      5  O4* LIG    1        1.215   5.952  -0.066  0.00  0.00    -0.370 OA
ENDROOT
BRANCH   1  10
ATOM      6  O   LIG    1        0.002  -0.004   0.002  0.00  0.00    -0.580 OA
ATOM      7  C   LIG    1       -0.014   1.214   0.009  0.00  0.00    +0.510 A 
ATOM      8  N   LIG    1       -1.188   1.878   0.029  0.00  0.00    -0.680 NA
ATOM      9  C   LIG    1       -1.206   3.224   0.037  0.00  0.00    +0.650 A 
ATOM     10  N   LIG    1       -0.062   3.932   0.025  0.00  0.00    -0.540 N 
ATOM     11  C   LIG    1        1.153   3.295   0.004  0.00  0.00    +0.270 A 
ATOM     12  O   LIG    1       -2.272   3.808   0.056  0.00  0.00    -0.600 OA
ATOM     13  C   LIG    1        1.199   1.946   0.001  0.00  0.00    -0.110 A 
ATOM     14  F   LIG    1        2.387   1.302  -0.019  0.00  0.00    -0.140 F 
ENDBRANCH   1  10
BRANCH   3  15
ATOM     15  O3* LIG    1        0.027   7.657  -2.737  0.00  0.00    -0.560 OA
ATOM     16  H3* LIG    1       -0.757   7.647  -3.303  0.00  0.00    +0.380 HD
ENDBRANCH   3  15
BRANCH   4  17
ATOM     17  C5* LIG    1        2.252   7.658  -1.457  0.00  0.00    +0.220 C 
BRANCH  17  18
ATOM     18  O5* LIG    1        3.446   7.719  -0.674  0.00  0.00    -0.570 OA
ATOM     19  H5* LIG    1        4.238   7.944  -1.180  0.00  0.00    +0.380 HD
ENDBRANCH  17  18
ENDBRANCH   4  17
TORSDOF 4
ENDMDL
MODEL      184
REMARK  Name = ZINC000002545128
REMARK                            x       y       z     vdW  Elec       q    Type
REMARK                         _______ _______ _______ _____ _____    ______ ____
ROOT
ATOM      1  CA  ALA A  2       -3.630  -0.713  -0.978  0.00  0.00    +0.240 C 
ATOM      2  CB  ALA A  2       -4.509   0.214  -0.137  0.00  0.00    +0.050 C 
ENDROOT
BRANCH   1   4
ATOM      3  C   ALA A  1       -1.412  -0.526   0.013  0.00  0.00    +0.520 C 
ATOM      4  N   ALA A  2       -2.256  -0.206  -0.988  0.00  0.00    -0.710 N 
ATOM      5  H   ALA A  2       -1.953   0.360  -1.716  0.00  0.00    +0.410 HD
ATOM      6  O   ALA A  1       -1.790  -1.233   0.922  0.00  0.00    -0.530 OA
BRANCH   3   8
ATOM      7  CB  ALA A  1       -0.019   1.526   0.010  0.00  0.00    +0.070 C 
ATOM      8  CA  ALA A  1        0.002  -0.004   0.002  0.00  0.00    +0.130 C 
BRANCH   8   9
ATOM      9  N   ALA A  1        0.713  -0.491   1.192  0.00  0.00    -0.830 NA
ATOM     10  H1  ALA A  1        1.664  -0.154   1.208  0.00  0.00    +0.350 HD
ATOM     11  H2  ALA A  1        0.684  -1.498   1.243  0.00  0.00    +0.350 HD
ENDBRANCH   8   9
ENDBRANCH   3   8
ENDBRANCH   1   4
BRANCH   1  12
ATOM     12  C   ALA A  2       -4.158  -0.763  -2.389  0.00  0.00    +0.500 C 
ATOM     13  N   ALA A  3       -5.410  -1.200  -2.624  0.00  0.00    -0.680 N 
ATOM     14  H   ALA A  3       -5.973  -1.483  -1.886  0.00  0.00    +0.410 HD
ATOM     15  O   ALA A  2       -3.455  -0.410  -3.312  0.00  0.00    -0.560 OA
BRANCH  13  16
ATOM     16  CA  ALA A  3       -5.923  -1.249  -3.996  0.00  0.00    +0.150 C 
ATOM     17  CB  ALA A  3       -5.498  -2.564  -4.653  0.00  0.00    +0.020 C 
BRANCH  16  18
ATOM     18  C   ALA A  3       -7.428  -1.163  -3.973  0.00  0.00    +0.500 C 
ATOM     19  OXT ALA A  3       -8.056  -1.186  -5.018  0.00  0.00    -0.690 OA
ATOM     20  O   ALA A  3       -8.017  -1.069  -2.909  0.00  0.00    -0.690 OA
ENDBRANCH  16  18
ENDBRANCH  13  16
ENDBRANCH   1  12
TORSDOF 6
ENDMDL
MODEL      185
REMARK  Name = ZINC000003035136
REMARK                            x       y       z     vdW  Elec       q    Type
REMARK                         _______ _______ _______ _____ _____    ______ ____
ROOT
ATOM      1  C   LIG    1       -4.890   0.718   0.029  0.00  0.00    +0.180 C 
ATOM      2  C   LIG    1       -5.190   0.296  -1.423  0.00  0.00    -0.270 C 
ATOM      3  S   LIG    1       -7.016   0.092  -1.422  0.00  0.00    +2.380 S 
ATOM      4  C   LIG    1       -7.306   1.473  -0.244  0.00  0.00    -0.330 C 
ATOM      5  O   LIG    1       -7.362  -1.144  -0.811  0.00  0.00    -0.920 OA
ATOM      6  O   LIG    1       -7.540   0.430  -2.699  0.00  0.00    -0.940 OA
ATOM      7  C   LIG    1       -6.088   1.385   0.694  0.00  0.00    +0.200 C 
ENDROOT
BRANCH   1   8
ATOM      8  N   LIG    1       -3.761   1.658   0.029  0.00  0.00    -0.680 NA
ATOM      9  H   LIG    1       -3.816   2.289   0.814  0.00  0.00    +0.340 HD
BRANCH   8  10
ATOM     10  C   LIG    1       -2.479   0.941   0.019  0.00  0.00    +0.200 C 
BRANCH  10  11
ATOM     11  C   LIG    1       -1.330   1.951   0.019  0.00  0.00    -0.050 C 
BRANCH  11  13
ATOM     12  O   LIG    1        0.002  -0.004   0.002  0.00  0.00    -0.700 OA
ATOM     13  C   LIG    1       -0.015   1.215   0.009  0.00  0.00    +0.490 C 
ATOM     14  O   LIG    1        1.033   1.839   0.002  0.00  0.00    -0.700 OA
ENDBRANCH  11  13
ENDBRANCH  10  11
ENDBRANCH   8  10
ENDBRANCH   1   8
BRANCH   7  15
ATOM     15  O   LIG    1       -6.448   0.629   1.852  0.00  0.00    -0.560 OA
ATOM     16  H   LIG    1       -7.163   1.022   2.371  0.00  0.00    +0.380 HD
ENDBRANCH   7  15
TORSDOF 5
ENDMDL
MODEL      186
REMARK  Name = ZINC000003035138
REMARK                            x       y       z     vdW  Elec       q    Type
REMARK                         _______ _______ _______ _____ _____    ______ ____
ROOT
ATOM      1  C   LIG    1       -4.890   0.718   0.029  0.00  0.00    +0.200 C 
ATOM      2  C   LIG    1       -5.221   0.301   1.486  0.00  0.00    -0.330 C 
ATOM      3  S   LIG    1       -6.925  -0.360   1.289  0.00  0.00    +2.390 S 
ATOM      4  C   LIG    1       -7.432   0.854   0.013  0.00  0.00    -0.340 C 
ATOM      5  O   LIG    1       -7.663  -0.140   2.483  0.00  0.00    -0.940 OA
ATOM      6  O   LIG    1       -6.870  -1.659   0.716  0.00  0.00    -0.930 OA
ATOM      7  C   LIG    1       -6.122   1.393  -0.576  0.00  0.00    +0.210 C 
ENDROOT
BRANCH   1   8
ATOM      8  N   LIG    1       -3.761   1.658   0.029  0.00  0.00    -0.660 NA
ATOM      9  H   LIG    1       -3.816   2.289   0.814  0.00  0.00    +0.350 HD
BRANCH   8  10
ATOM     10  C   LIG    1       -2.479   0.941   0.019  0.00  0.00    +0.180 C 
BRANCH  10  11
ATOM     11  C   LIG    1       -1.330   1.951   0.019  0.00  0.00    -0.050 C 
BRANCH  11  13
ATOM     12  O   LIG    1        0.002  -0.004   0.002  0.00  0.00    -0.700 OA
ATOM     13  C   LIG    1       -0.015   1.215   0.009  0.00  0.00    +0.490 C 
ATOM     14  O   LIG    1        1.033   1.839   0.002  0.00  0.00    -0.700 OA
ENDBRANCH  11  13
ENDBRANCH  10  11
ENDBRANCH   8  10
ENDBRANCH   1   8
BRANCH   7  15
ATOM     15  O   LIG    1       -6.048   2.799  -0.330  0.00  0.00    -0.540 OA
ATOM     16  H   LIG    1       -6.760   3.308  -0.740  0.00  0.00    +0.380 HD
ENDBRANCH   7  15
TORSDOF 5
ENDMDL
