template_0
     RDKit          3D

 50 51  0  0  0  0  0  0  0  0999 V2000
    2.0376   -0.0545    0.0741 C   0  0  0  0  0  0  0  0  0  0  0  0
    2.7656    0.6615    1.2291 C   0  0  0  0  0  0  0  0  0  0  0  0
    3.0226   -0.7895   -0.8279 C   0  0  0  0  0  0  0  0  0  0  0  0
    0.1856   -2.4965    2.4141 C   0  0  0  0  0  0  0  0  0  0  0  0
    1.1106   -1.5625    1.9261 C   0  0  0  0  0  0  0  0  0  0  0  0
   -0.8554   -2.9555    1.5901 C   0  0  0  0  0  0  0  0  0  0  0  0
   -0.9554   -2.4695    0.2841 C   0  0  0  0  0  0  0  0  0  0  0  0
   -0.0194   -1.5405   -0.1899 C   0  0  0  0  0  0  0  0  0  0  0  0
    1.0136   -1.0765    0.6221 C   0  0  0  0  0  0  0  0  0  0  0  0
    1.6296   -3.3745    4.1201 C   0  0  0  0  0  0  0  0  0  0  0  0
    0.2846   -2.9725    3.6991 O   0  0  0  0  0  0  0  0  0  0  0  0
   -1.8094   -3.8545    2.0601 O   0  0  0  0  0  0  0  0  0  0  0  0
   -2.9564   -3.2915    2.7301 C   0  0  0  0  0  0  0  0  0  0  0  0
   -1.9694   -2.9115   -0.5119 O   0  0  0  0  0  0  0  0  0  0  0  0
   -1.5624   -3.3275   -1.8269 C   0  0  0  0  0  0  0  0  0  0  0  0
    1.3996    1.0745   -0.6349 C   0  0  0  0  0  0  0  0  0  0  0  0
    0.7806    2.0005   -1.1679 C   0  0  0  0  0  0  0  0  0  0  0  0
   -0.0594    3.0315   -1.7139 C   0  0  0  0  0  0  0  0  0  0  0  0
   -1.4174    3.0305   -1.3749 C   0  0  0  0  0  0  0  0  0  0  0  0
   -2.0194    1.9635   -0.4469 C   0  0  0  0  0  0  0  0  0  0  0  0
   -2.2214    3.9875   -1.8619 N   0  0  0  0  0  0  0  0  0  0  0  0
   -1.7474    4.9325   -2.6739 C   0  0  0  0  0  0  0  0  0  0  0  0
   -2.5634    5.8655   -3.1439 N   0  0  0  0  0  0  0  0  0  0  0  0
   -0.4514    4.9525   -3.0059 N   0  0  0  0  0  0  0  0  0  0  0  0
    0.4106    4.0395   -2.5539 C   0  0  0  0  0  0  0  0  0  0  0  0
    1.6796    4.1435   -2.9379 N   0  0  0  0  0  0  0  0  0  0  0  0
    2.3848    0.2869    2.1908 H   0  0  0  0  0  0  0  0  0  0  0  0
    3.8455    0.4638    1.1604 H   0  0  0  0  0  0  0  0  0  0  0  0
    2.5860    1.7445    1.1604 H   0  0  0  0  0  0  0  0  0  0  0  0
    3.7513   -1.3333   -0.2087 H   0  0  0  0  0  0  0  0  0  0  0  0
    2.4765   -1.5027   -1.4629 H   0  0  0  0  0  0  0  0  0  0  0  0
    3.5508   -0.0630   -1.4629 H   0  0  0  0  0  0  0  0  0  0  0  0
    1.9222   -1.2090    2.5791 H   0  0  0  0  0  0  0  0  0  0  0  0
   -0.1017   -1.1706   -1.2225 H   0  0  0  0  0  0  0  0  0  0  0  0
    1.6807   -3.3898    5.2188 H   0  0  0  0  0  0  0  0  0  0  0  0
    1.8517   -4.3783    3.7288 H   0  0  0  0  0  0  0  0  0  0  0  0
    2.3661   -2.6572    3.7288 H   0  0  0  0  0  0  0  0  0  0  0  0
   -2.8155   -3.3607    3.8189 H   0  0  0  0  0  0  0  0  0  0  0  0
   -3.0683   -2.2361    2.4412 H   0  0  0  0  0  0  0  0  0  0  0  0
   -3.8598   -3.8486    2.4412 H   0  0  0  0  0  0  0  0  0  0  0  0
   -0.7954   -4.1115   -1.7424 H   0  0  0  0  0  0  0  0  0  0  0  0
   -2.4322   -3.7228   -2.3720 H   0  0  0  0  0  0  0  0  0  0  0  0
   -1.1482   -2.4666   -2.3720 H   0  0  0  0  0  0  0  0  0  0  0  0
   -1.8553    2.2543    0.6012 H   0  0  0  0  0  0  0  0  0  0  0  0
   -3.0991    1.8775   -0.6388 H   0  0  0  0  0  0  0  0  0  0  0  0
   -1.5346    0.9949   -0.6388 H   0  0  0  0  0  0  0  0  0  0  0  0
   -2.2014    6.5975   -3.7715 H   0  0  0  0  0  0  0  0  0  0  0  0
   -3.5593    5.8583   -2.8814 H   0  0  0  0  0  0  0  0  0  0  0  0
    1.9679    4.9114   -3.5608 H   0  0  0  0  0  0  0  0  0  0  0  0
    2.3742    3.4561   -2.6123 H   0  0  0  0  0  0  0  0  0  0  0  0
  1  2  1  0
  1  3  1  0
  1  9  1  0
  1 16  1  0
  2 27  1  0
  2 28  1  0
  2 29  1  0
  3 30  1  0
  3 31  1  0
  3 32  1  0
  4  5  2  0
  4  6  1  0
  4 11  1  0
  5  9  1  0
  5 33  1  0
  6  7  2  0
  6 12  1  0
  7  8  1  0
  7 14  1  0
  8  9  2  0
  8 34  1  0
 10 11  1  0
 10 35  1  0
 10 36  1  0
 10 37  1  0
 12 13  1  0
 13 38  1  0
 13 39  1  0
 13 40  1  0
 14 15  1  0
 15 41  1  0
 15 42  1  0
 15 43  1  0
 16 17  3  0
 17 18  1  0
 18 19  2  0
 18 25  1  0
 19 20  1  0
 19 21  1  0
 20 44  1  0
 20 45  1  0
 20 46  1  0
 21 22  2  0
 22 23  1  0
 22 24  1  0
 23 47  1  0
 23 48  1  0
 24 25  2  0
 25 26  1  0
 26 49  1  0
 26 50  1  0
M  END
>  <template_idx>  (1)
0

>  <smiles>  (1)
COc1cc(C(C)(C)C#Cc2c(C)nc(N)nc2N)cc(OC)c1OC

>  <qed>  (1)
0.8097632315468515

>  <id>  (1)
DYR_STAAU_2_158_0/4xe6_X_rec_3fqc_55v_lig_tt_docked_4.sdf

$$$$
template_1
     RDKit          3D

 57 62  0  0  0  0  0  0  0  0999 V2000
   -0.1343    1.1754   -1.8578 C   0  0  0  0  0  0  0  0  0  0  0  0
   -0.3853    1.4354   -0.3658 C   0  0  0  0  0  0  0  0  0  0  0  0
    0.3247    0.4794    0.6112 C   0  0  0  0  0  0  0  0  0  0  0  0
    0.6427   -0.7186    0.4352 O   0  0  0  0  0  0  0  0  0  0  0  0
    0.7337    1.2354    1.6912 N   0  0  0  0  0  0  0  0  0  0  0  0
    0.7707    2.6554    1.3732 C   0  0  0  0  0  0  0  0  0  0  0  0
    0.4417    2.7354   -0.1488 C   0  0  0  0  0  0  0  0  0  0  0  0
    1.6737    2.5284   -1.0778 C   0  0  0  0  0  0  0  0  0  0  0  0
    1.8767    3.8164   -1.9088 C   0  0  0  0  0  0  0  0  0  0  0  0
    2.4757    3.2734   -3.1918 C   0  0  0  0  0  0  0  0  0  0  0  0
    1.6617    1.9734   -3.4518 C   0  0  0  0  0  0  0  0  0  0  0  0
    1.3157    1.4644   -2.0968 N   0  0  0  0  0  0  0  0  0  0  0  0
   -1.3873   -2.6256   -3.4418 C   0  0  0  0  0  0  0  0  0  0  0  0
   -2.1913   -1.4846   -3.6278 C   0  0  0  0  0  0  0  0  0  0  0  0
   -1.7883   -0.2526   -3.1238 C   0  0  0  0  0  0  0  0  0  0  0  0
   -0.5733   -0.1456   -2.4208 C   0  0  0  0  0  0  0  0  0  0  0  0
    0.2307   -1.2766   -2.2498 C   0  0  0  0  0  0  0  0  0  0  0  0
   -0.1753   -2.5196   -2.7518 C   0  0  0  0  0  0  0  0  0  0  0  0
   -0.9523   -4.9026   -4.1908 N   0  0  0  0  0  0  0  0  0  0  0  0
   -1.7913   -3.8886   -3.9678 C   0  0  0  0  0  0  0  0  0  0  0  0
   -3.0983   -4.1196   -4.2668 N   0  0  0  0  0  0  0  0  0  0  0  0
    1.5887    0.5634    2.7372 C   0  0  0  0  0  0  0  0  0  0  0  0
    0.8547   -0.2976    3.7532 C   0  0  0  0  0  0  0  0  0  0  0  0
    1.2657   -1.6456    4.0122 C   0  0  0  0  0  0  0  0  0  0  0  0
    0.5977   -2.4476    4.9612 C   0  0  0  0  0  0  0  0  0  0  0  0
   -0.4953   -1.8786    5.6292 C   0  0  0  0  0  0  0  0  0  0  0  0
   -1.3033   -2.4476    6.5842 O   0  0  0  0  0  0  0  0  0  0  0  0
   -2.2803   -1.4176    6.9332 C   0  0  0  0  0  0  0  0  0  0  0  0
   -2.0223   -0.2116    6.1652 O   0  0  0  0  0  0  0  0  0  0  0  0
   -0.9153   -0.5616    5.3832 C   0  0  0  0  0  0  0  0  0  0  0  0
   -0.2423    0.2414    4.4432 C   0  0  0  0  0  0  0  0  0  0  0  0
   -0.7978    1.8454   -2.4243 H   0  0  0  0  0  0  0  0  0  0  0  0
   -1.4687    1.3927   -0.1801 H   0  0  0  0  0  0  0  0  0  0  0  0
    0.0191    3.2031    1.9607 H   0  0  0  0  0  0  0  0  0  0  0  0
    1.7452    3.1071    1.6101 H   0  0  0  0  0  0  0  0  0  0  0  0
   -0.0093    3.7120   -0.3786 H   0  0  0  0  0  0  0  0  0  0  0  0
    2.5559    2.2683   -0.4745 H   0  0  0  0  0  0  0  0  0  0  0  0
    0.9197    4.3246   -2.0984 H   0  0  0  0  0  0  0  0  0  0  0  0
    2.5039    4.5707   -1.4113 H   0  0  0  0  0  0  0  0  0  0  0  0
    2.3490    3.9883   -4.0181 H   0  0  0  0  0  0  0  0  0  0  0  0
    3.5581    3.0928   -3.1161 H   0  0  0  0  0  0  0  0  0  0  0  0
    0.7505    2.1951   -4.0268 H   0  0  0  0  0  0  0  0  0  0  0  0
    2.2306    1.2376   -4.0391 H   0  0  0  0  0  0  0  0  0  0  0  0
   -3.1424   -1.5681   -4.1742 H   0  0  0  0  0  0  0  0  0  0  0  0
   -2.4179    0.6367   -3.2742 H   0  0  0  0  0  0  0  0  0  0  0  0
    1.1891   -1.1896   -1.7171 H   0  0  0  0  0  0  0  0  0  0  0  0
    0.4560   -3.4082   -2.6041 H   0  0  0  0  0  0  0  0  0  0  0  0
   -1.3078   -5.7907   -4.5729 H   0  0  0  0  0  0  0  0  0  0  0  0
   -3.3862   -5.0328   -4.6464 H   0  0  0  0  0  0  0  0  0  0  0  0
   -3.8000   -3.3813   -4.1136 H   0  0  0  0  0  0  0  0  0  0  0  0
    2.3145   -0.0780    2.2158 H   0  0  0  0  0  0  0  0  0  0  0  0
    2.0412    1.3813    3.3170 H   0  0  0  0  0  0  0  0  0  0  0  0
    2.1199   -2.0638    3.4595 H   0  0  0  0  0  0  0  0  0  0  0  0
    0.9215   -3.4782    5.1686 H   0  0  0  0  0  0  0  0  0  0  0  0
   -3.2928   -1.7839    6.7080 H   0  0  0  0  0  0  0  0  0  0  0  0
   -2.1980   -1.1887    8.0059 H   0  0  0  0  0  0  0  0  0  0  0  0
   -0.5706    1.2738    4.2526 H   0  0  0  0  0  0  0  0  0  0  0  0
  1  2  1  0
  1 12  1  0
  1 16  1  0
  1 32  1  0
  2  3  1  0
  2  7  1  0
  2 33  1  0
  3  4  2  0
  3  5  1  0
  5  6  1  0
  5 22  1  0
  6  7  1  0
  6 34  1  0
  6 35  1  0
  7  8  1  0
  7 36  1  0
  8  9  1  0
  8 12  1  0
  8 37  1  0
  9 10  1  0
  9 38  1  0
  9 39  1  0
 10 11  1  0
 10 40  1  0
 10 41  1  0
 11 12  1  0
 11 42  1  0
 11 43  1  0
 13 14  2  0
 13 18  1  0
 13 20  1  0
 14 15  1  0
 14 44  1  0
 15 16  2  0
 15 45  1  0
 16 17  1  0
 17 18  2  0
 17 46  1  0
 18 47  1  0
 19 20  2  3
 19 48  1  0
 20 21  1  0
 21 49  1  0
 21 50  1  0
 22 23  1  0
 22 51  1  0
 22 52  1  0
 23 24  2  0
 23 31  1  0
 24 25  1  0
 24 53  1  0
 25 26  2  0
 25 54  1  0
 26 27  1  0
 26 30  1  0
 27 28  1  0
 28 29  1  0
 28 55  1  0
 28 56  1  0
 29 30  1  0
 30 31  2  0
 31 57  1  0
M  END
>  <template_idx>  (2)
1

>  <smiles>  (2)
N=C(N)c1ccc([C@H]2[C@H]3C(=O)N(Cc4ccc5c(c4)OCO5)C[C@H]3[C@@H]3CCCN32)cc1

>  <qed>  (2)
0.5880124836113008

>  <id>  (2)
TRY1_BOVIN_66_246_0/1k1j_A_rec_1yp9_uiz_lig_tt_docked_1.sdf

$$$$
template_2
     RDKit          3D

 34 36  0  0  0  0  0  0  0  0999 V2000
   -0.7809    0.2881   -3.5033 C   0  0  0  0  0  0  0  0  0  0  0  0
   -1.3919   -0.5869   -2.4333 C   0  0  0  0  0  0  0  0  0  0  0  0
   -0.9629   -0.2039   -1.0593 C   0  0  0  0  0  0  0  0  0  0  0  0
    0.3011   -0.1729   -0.4993 C   0  0  0  0  0  0  0  0  0  0  0  0
    0.4241    0.2141    0.8257 C   0  0  0  0  0  0  0  0  0  0  0  0
   -0.7079    0.5511    1.5647 C   0  0  0  0  0  0  0  0  0  0  0  0
   -1.9659    0.5221    0.9917 C   0  0  0  0  0  0  0  0  0  0  0  0
   -2.0609    0.1281   -0.3173 C   0  0  0  0  0  0  0  0  0  0  0  0
   -3.2129    0.0191   -1.0823 N   0  0  0  0  0  0  0  0  0  0  0  0
   -2.8929   -0.3639   -2.3663 C   0  0  0  0  0  0  0  0  0  0  0  0
   -3.6859   -0.4669   -3.2933 O   0  0  0  0  0  0  0  0  0  0  0  0
   -3.0739    0.8541    1.6847 F   0  0  0  0  0  0  0  0  0  0  0  0
   -1.0839   -2.0489   -2.6353 C   0  0  0  0  0  0  0  0  0  0  0  0
    1.7421    0.2341    1.4177 C   0  0  0  0  0  0  0  0  0  0  0  0
    2.9551   -0.1189    0.8587 C   0  0  0  0  0  0  0  0  0  0  0  0
    3.9721    0.0561    1.8327 C   0  0  0  0  0  0  0  0  0  0  0  0
    3.3581    0.5301    2.9687 C   0  0  0  0  0  0  0  0  0  0  0  0
    2.0201    0.6301    2.7037 N   0  0  0  0  0  0  0  0  0  0  0  0
    1.0671    1.1291    3.6767 C   0  0  0  0  0  0  0  0  0  0  0  0
   -0.2122    1.1024   -3.0306 H   0  0  0  0  0  0  0  0  0  0  0  0
   -0.1064   -0.3148   -4.1291 H   0  0  0  0  0  0  0  0  0  0  0  0
   -1.5792    0.7136   -4.1291 H   0  0  0  0  0  0  0  0  0  0  0  0
    1.1867   -0.4485   -1.0907 H   0  0  0  0  0  0  0  0  0  0  0  0
   -0.5992    0.8445    2.6192 H   0  0  0  0  0  0  0  0  0  0  0  0
   -4.1678    0.1983   -0.7404 H   0  0  0  0  0  0  0  0  0  0  0  0
   -0.9803   -2.5404   -1.6567 H   0  0  0  0  0  0  0  0  0  0  0  0
   -1.9021   -2.5216   -3.1983 H   0  0  0  0  0  0  0  0  0  0  0  0
   -0.1444   -2.1513   -3.1983 H   0  0  0  0  0  0  0  0  0  0  0  0
    3.1073   -0.4763   -0.1705 H   0  0  0  0  0  0  0  0  0  0  0  0
    5.0453   -0.1481    1.7040 H   0  0  0  0  0  0  0  0  0  0  0  0
    3.8533    0.7828    3.9178 H   0  0  0  0  0  0  0  0  0  0  0  0
    1.4425    0.9325    4.6918 H   0  0  0  0  0  0  0  0  0  0  0  0
    0.9347    2.2123    3.5381 H   0  0  0  0  0  0  0  0  0  0  0  0
    0.1014    0.6209    3.5381 H   0  0  0  0  0  0  0  0  0  0  0  0
  1  2  1  0
  1 20  1  0
  1 21  1  0
  1 22  1  0
  2  3  1  0
  2 10  1  0
  2 13  1  0
  3  4  2  0
  3  8  1  0
  4  5  1  0
  4 23  1  0
  5  6  2  0
  5 14  1  0
  6  7  1  0
  6 24  1  0
  7  8  2  0
  7 12  1  0
  8  9  1  0
  9 10  1  0
  9 25  1  0
 10 11  2  0
 13 26  1  0
 13 27  1  0
 13 28  1  0
 14 15  2  0
 14 18  1  0
 15 16  1  0
 15 29  1  0
 16 17  2  0
 16 30  1  0
 17 18  1  0
 17 31  1  0
 18 19  1  0
 19 32  1  0
 19 33  1  0
 19 34  1  0
M  END
>  <template_idx>  (3)
2

>  <smiles>  (3)
Cn1cccc1-c1cc(F)c2c(c1)C(C)(C)C(=O)N2

>  <qed>  (3)
0.8376942444667775

>  <id>  (3)
HYES_HUMAN_230_551_0/5ai4_A_rec_5am0_lws_lig_tt_min_0.sdf

$$$$
template_3
     RDKit          3D

 37 39  0  0  0  0  0  0  0  0999 V2000
    0.4146   -2.8580   -0.9558 O   0  0  0  0  0  0  0  0  0  0  0  0
   -0.3824   -1.9420   -0.7478 C   0  0  0  0  0  0  0  0  0  0  0  0
   -0.6254   -1.4700    0.4812 N   0  0  0  0  0  0  0  0  0  0  0  0
   -1.1244   -1.2960   -1.8798 C   0  0  0  0  0  0  0  0  0  0  0  0
   -0.9214   -1.7720   -3.1798 C   0  0  0  0  0  0  0  0  0  0  0  0
   -1.6144   -1.2520   -4.2348 C   0  0  0  0  0  0  0  0  0  0  0  0
   -2.0204   -0.2700   -1.6568 C   0  0  0  0  0  0  0  0  0  0  0  0
   -2.7524    0.2790   -2.7338 C   0  0  0  0  0  0  0  0  0  0  0  0
   -3.6734    1.2640   -2.4868 N   0  0  0  0  0  0  0  0  0  0  0  0
   -4.3484    1.7100   -3.5338 C   0  0  0  0  0  0  0  0  0  0  0  0
   -4.1524    1.2160   -4.8188 C   0  0  0  0  0  0  0  0  0  0  0  0
   -3.2754    0.2660   -5.0948 N   0  0  0  0  0  0  0  0  0  0  0  0
   -2.5534   -0.2180   -4.0368 C   0  0  0  0  0  0  0  0  0  0  0  0
    0.1536   -1.8580    1.6502 C   0  0  0  0  0  0  0  0  0  0  0  0
    1.0676   -0.7680    2.1512 C   0  0  0  0  0  0  0  0  0  0  0  0
    1.0236   -0.3550    3.4762 C   0  0  0  0  0  0  0  0  0  0  0  0
    1.8226    0.6780    3.9342 C   0  0  0  0  0  0  0  0  0  0  0  0
    2.6926    1.3170    3.0562 C   0  0  0  0  0  0  0  0  0  0  0  0
    2.7706    0.8950    1.7382 C   0  0  0  0  0  0  0  0  0  0  0  0
    1.9596   -0.1370    1.2962 C   0  0  0  0  0  0  0  0  0  0  0  0
    3.5126    2.3900    3.3172 O   0  0  0  0  0  0  0  0  0  0  0  0
    4.5946    2.2150    4.2362 C   0  0  0  0  0  0  0  0  0  0  0  0
   -1.3989   -0.8015    0.6064 H   0  0  0  0  0  0  0  0  0  0  0  0
   -0.1925   -2.5772   -3.3543 H   0  0  0  0  0  0  0  0  0  0  0  0
   -1.4391   -1.6426   -5.2480 H   0  0  0  0  0  0  0  0  0  0  0  0
   -2.1649    0.1211   -0.6388 H   0  0  0  0  0  0  0  0  0  0  0  0
   -5.0947    2.5036   -3.3815 H   0  0  0  0  0  0  0  0  0  0  0  0
   -4.7526    1.6335   -5.6406 H   0  0  0  0  0  0  0  0  0  0  0  0
   -0.5419   -2.1283    2.4584 H   0  0  0  0  0  0  0  0  0  0  0  0
    0.7909   -2.7026    1.3494 H   0  0  0  0  0  0  0  0  0  0  0  0
    0.3402   -0.8588    4.1756 H   0  0  0  0  0  0  0  0  0  0  0  0
    1.7702    0.9923    4.9871 H   0  0  0  0  0  0  0  0  0  0  0  0
    3.4748    1.3785    1.0452 H   0  0  0  0  0  0  0  0  0  0  0  0
    2.0239   -0.4625    0.2475 H   0  0  0  0  0  0  0  0  0  0  0  0
    4.2142    2.2765    5.2665 H   0  0  0  0  0  0  0  0  0  0  0  0
    5.0575    1.2303    4.0745 H   0  0  0  0  0  0  0  0  0  0  0  0
    5.3443    3.0036    4.0745 H   0  0  0  0  0  0  0  0  0  0  0  0
  1  2  2  0
  2  3  1  0
  2  4  1  0
  3 14  1  0
  3 23  1  0
  4  5  2  0
  4  7  1  0
  5  6  1  0
  5 24  1  0
  6 13  2  0
  6 25  1  0
  7  8  2  0
  7 26  1  0
  8  9  1  0
  8 13  1  0
  9 10  2  0
 10 11  1  0
 10 27  1  0
 11 12  2  0
 11 28  1  0
 12 13  1  0
 14 15  1  0
 14 29  1  0
 14 30  1  0
 15 16  2  0
 15 20  1  0
 16 17  1  0
 16 31  1  0
 17 18  2  0
 17 32  1  0
 18 19  1  0
 18 21  1  0
 19 20  2  0
 19 33  1  0
 20 34  1  0
 21 22  1  0
 22 35  1  0
 22 36  1  0
 22 37  1  0
M  END
>  <template_idx>  (4)
3

>  <smiles>  (4)
COc1ccc(CNC(=O)c2ccc3nccnc3c2)cc1

>  <qed>  (4)
0.8026913245193723

>  <id>  (4)
CHK2_HUMAN_210_526_0/4a9s_A_rec_4bdk_rqq_lig_tt_min_0.sdf

$$$$
template_4
     RDKit          3D

 31 33  0  0  0  0  0  0  0  0999 V2000
   -0.1743   -0.2900   -0.6643 N   0  0  0  0  0  0  0  0  0  0  0  0
   -1.3393    0.0600   -1.2413 C   0  0  0  0  0  0  0  0  0  0  0  0
   -1.3263   -0.3330   -2.5203 N   0  0  0  0  0  0  0  0  0  0  0  0
   -0.1583   -0.9510   -2.7373 C   0  0  0  0  0  0  0  0  0  0  0  0
    0.5727   -0.9250   -1.5603 C   0  0  0  0  0  0  0  0  0  0  0  0
    1.8117   -1.4810   -1.4503 N   0  0  0  0  0  0  0  0  0  0  0  0
    2.3767   -2.0520   -2.5023 C   0  0  0  0  0  0  0  0  0  0  0  0
    1.6747   -2.1250   -3.7373 N   0  0  0  0  0  0  0  0  0  0  0  0
    0.4137   -1.5680   -3.8663 C   0  0  0  0  0  0  0  0  0  0  0  0
   -0.2333   -1.6240   -5.0273 N   0  0  0  0  0  0  0  0  0  0  0  0
    1.9037    1.7230    1.0407 O   0  0  0  0  0  0  0  0  0  0  0  0
    0.4977    1.4630    0.9267 C   0  0  0  0  0  0  0  0  0  0  0  0
   -0.1993    1.7280    2.2657 C   0  0  0  0  0  0  0  0  0  0  0  0
    0.6847    2.3880    3.2097 O   0  0  0  0  0  0  0  0  0  0  0  0
   -0.5453    0.3300    2.7477 C   0  0  0  0  0  0  0  0  0  0  0  0
   -0.8443   -0.3500    1.5417 O   0  0  0  0  0  0  0  0  0  0  0  0
    0.2587   -0.0450    0.7037 C   0  0  0  0  0  0  0  0  0  0  0  0
   -1.8743    0.3510    3.4877 C   0  0  0  0  0  0  0  0  0  0  0  0
   -2.8133    0.8980    2.6337 F   0  0  0  0  0  0  0  0  0  0  0  0
   -2.1677    0.5841   -0.7421 H   0  0  0  0  0  0  0  0  0  0  0  0
    3.3906   -2.4707   -2.4214 H   0  0  0  0  0  0  0  0  0  0  0  0
    0.2052   -2.0806   -5.8398 H   0  0  0  0  0  0  0  0  0  0  0  0
   -1.1728   -1.2107   -5.1138 H   0  0  0  0  0  0  0  0  0  0  0  0
    2.1542    1.7693    1.9974 H   0  0  0  0  0  0  0  0  0  0  0  0
    0.1223    2.0942    0.1077 H   0  0  0  0  0  0  0  0  0  0  0  0
   -1.0698    2.3934    2.1679 H   0  0  0  0  0  0  0  0  0  0  0  0
    0.3993    2.1750    4.1334 H   0  0  0  0  0  0  0  0  0  0  0  0
    0.2495   -0.0913    3.3807 H   0  0  0  0  0  0  0  0  0  0  0  0
    1.1672   -0.6314    0.9056 H   0  0  0  0  0  0  0  0  0  0  0  0
   -2.1677   -0.6727    3.7633 H   0  0  0  0  0  0  0  0  0  0  0  0
   -1.7960    0.9442    4.4107 H   0  0  0  0  0  0  0  0  0  0  0  0
  1  2  1  0
  1  5  1  0
  1 17  1  0
  2  3  2  0
  2 20  1  0
  3  4  1  0
  4  5  2  0
  4  9  1  0
  5  6  1  0
  6  7  2  0
  7  8  1  0
  7 21  1  0
  8  9  2  0
  9 10  1  0
 10 22  1  0
 10 23  1  0
 11 12  1  0
 11 24  1  0
 12 13  1  0
 12 17  1  0
 12 25  1  0
 13 14  1  0
 13 15  1  0
 13 26  1  0
 14 27  1  0
 15 16  1  0
 15 18  1  0
 15 28  1  0
 16 17  1  0
 17 29  1  0
 18 19  1  0
 18 30  1  0
 18 31  1  0
M  END
>  <template_idx>  (5)
4

>  <smiles>  (5)
Nc1ncnc2c1ncn2[C@@H]1O[C@H](CF)[C@@H](O)[C@H]1O

>  <qed>  (5)
0.6390758493858083

>  <id>  (5)
FLA_STRCT_1_299_0/1rqp_A_rec_2v7v_5fd_lig_tt_docked_0.sdf

$$$$
template_5
     RDKit          3D

 57 60  0  0  0  0  0  0  0  0999 V2000
   -1.7470    0.4297    3.7230 C   0  0  0  0  0  0  0  0  0  0  0  0
   -2.0460    0.6587    2.2370 C   0  0  0  0  0  0  0  0  0  0  0  0
   -2.8020   -0.5203    1.6370 C   0  0  0  0  0  0  0  0  0  0  0  0
   -1.8500   -1.6413    1.3450 C   0  0  0  0  0  0  0  0  0  0  0  0
   -2.1150   -3.0273    1.1680 C   0  0  0  0  0  0  0  0  0  0  0  0
   -3.2760   -3.7843    1.1960 C   0  0  0  0  0  0  0  0  0  0  0  0
   -3.1630   -5.1483    0.9760 C   0  0  0  0  0  0  0  0  0  0  0  0
   -1.9400   -5.7413    0.7270 C   0  0  0  0  0  0  0  0  0  0  0  0
   -0.7720   -4.9983    0.6960 C   0  0  0  0  0  0  0  0  0  0  0  0
   -0.8950   -3.6443    0.9220 C   0  0  0  0  0  0  0  0  0  0  0  0
    0.0820   -2.6703    0.9410 N   0  0  0  0  0  0  0  0  0  0  0  0
   -0.5020   -1.4533    1.2000 C   0  0  0  0  0  0  0  0  0  0  0  0
    0.2160   -0.1563    1.2900 C   0  0  0  0  0  0  0  0  0  0  0  0
   -0.8130    0.9677    1.4200 N   0  0  0  0  0  0  0  0  0  0  0  0
    1.0870    0.0647    0.0640 C   0  0  0  0  0  0  0  0  0  0  0  0
    0.5880   -0.0983   -1.2170 C   0  0  0  0  0  0  0  0  0  0  0  0
    1.3500    0.1177   -2.3460 C   0  0  0  0  0  0  0  0  0  0  0  0
    2.6680    0.5097   -2.2270 C   0  0  0  0  0  0  0  0  0  0  0  0
    3.2010    0.6797   -0.9640 C   0  0  0  0  0  0  0  0  0  0  0  0
    2.4110    0.4597    0.1550 C   0  0  0  0  0  0  0  0  0  0  0  0
    2.9530    0.6567    1.3450 F   0  0  0  0  0  0  0  0  0  0  0  0
   -0.6730   -0.4663   -1.3990 F   0  0  0  0  0  0  0  0  0  0  0  0
    3.4950    0.7357   -3.4140 C   0  0  0  0  0  0  0  0  0  0  0  0
    3.2250    0.0417   -4.5280 C   0  0  0  0  0  0  0  0  0  0  0  0
    4.1140    0.3127   -5.7270 C   0  0  0  0  0  0  0  0  0  0  0  0
    3.6740   -0.1783   -6.8080 O   0  0  0  0  0  0  0  0  0  0  0  0
    5.1720    0.9787   -5.5350 O   0  0  0  0  0  0  0  0  0  0  0  0
   -0.1640    2.2817    1.7310 C   0  0  0  0  0  0  0  0  0  0  0  0
   -0.7260    3.4017    0.8490 C   0  0  0  0  0  0  0  0  0  0  0  0
    0.2130    4.5777    0.8620 C   0  0  0  0  0  0  0  0  0  0  0  0
   -1.0150    3.0257   -0.5820 C   0  0  0  0  0  0  0  0  0  0  0  0
   -1.9050    3.8197    1.3680 F   0  0  0  0  0  0  0  0  0  0  0  0
   -2.4736    0.9862    4.3333 H   0  0  0  0  0  0  0  0  0  0  0  0
   -1.8225   -0.6437    3.9511 H   0  0  0  0  0  0  0  0  0  0  0  0
   -0.7303    0.7824    3.9511 H   0  0  0  0  0  0  0  0  0  0  0  0
   -2.6861    1.5523    2.1937 H   0  0  0  0  0  0  0  0  0  0  0  0
   -3.5646   -0.8658    2.3505 H   0  0  0  0  0  0  0  0  0  0  0  0
   -3.2853   -0.2024    0.7014 H   0  0  0  0  0  0  0  0  0  0  0  0
   -4.2540   -3.3182    1.3864 H   0  0  0  0  0  0  0  0  0  0  0  0
   -4.0680   -5.7731    1.0003 H   0  0  0  0  0  0  0  0  0  0  0  0
   -1.8933   -6.8259    0.5498 H   0  0  0  0  0  0  0  0  0  0  0  0
    0.2047   -5.4651    0.5009 H   0  0  0  0  0  0  0  0  0  0  0  0
   -0.6408   -1.2902    0.1211 H   0  0  0  0  0  0  0  0  0  0  0  0
    0.8736   -0.1642    2.1718 H   0  0  0  0  0  0  0  0  0  0  0  0
    0.9067   -0.0226   -3.3428 H   0  0  0  0  0  0  0  0  0  0  0  0
    4.2500    0.9890   -0.8457 H   0  0  0  0  0  0  0  0  0  0  0  0
    4.3217    1.4610   -3.3916 H   0  0  0  0  0  0  0  0  0  0  0  0
    2.4017   -0.6865   -4.5708 H   0  0  0  0  0  0  0  0  0  0  0  0
    5.7774    1.1757   -6.2931 H   0  0  0  0  0  0  0  0  0  0  0  0
   -0.3468    2.5309    2.7868 H   0  0  0  0  0  0  0  0  0  0  0  0
    0.9145    2.1921    1.5339 H   0  0  0  0  0  0  0  0  0  0  0  0
    0.4362    4.8573    1.9023 H   0  0  0  0  0  0  0  0  0  0  0  0
    1.1464    4.3074    0.3467 H   0  0  0  0  0  0  0  0  0  0  0  0
   -0.2573    5.4282    0.3467 H   0  0  0  0  0  0  0  0  0  0  0  0
   -1.6852    2.1538   -0.6038 H   0  0  0  0  0  0  0  0  0  0  0  0
   -1.4974    3.8719   -1.0931 H   0  0  0  0  0  0  0  0  0  0  0  0
   -0.0732    2.7772   -1.0931 H   0  0  0  0  0  0  0  0  0  0  0  0
  1  2  1  0
  1 33  1  0
  1 34  1  0
  1 35  1  0
  2  3  1  0
  2 14  1  0
  2 36  1  0
  3  4  1  0
  3 37  1  0
  3 38  1  0
  4  5  2  0
  4 12  1  0
  5  6  1  0
  5 10  1  0
  6  7  2  0
  6 39  1  0
  7  8  1  0
  7 40  1  0
  8  9  2  0
  8 41  1  0
  9 10  1  0
  9 42  1  0
 10 11  2  0
 11 12  1  0
 12 13  1  0
 12 43  1  0
 13 14  1  0
 13 15  1  0
 13 44  1  0
 14 28  1  0
 15 16  2  0
 15 20  1  0
 16 17  1  0
 16 22  1  0
 17 18  2  0
 17 45  1  0
 18 19  1  0
 18 23  1  0
 19 20  2  0
 19 46  1  0
 20 21  1  0
 23 24  2  3
 23 47  1  0
 24 25  1  0
 24 48  1  0
 25 26  2  0
 25 27  1  0
 27 49  1  0
 28 29  1  0
 28 50  1  0
 28 51  1  0
 29 30  1  0
 29 31  1  0
 29 32  1  0
 30 52  1  0
 30 53  1  0
 30 54  1  0
 31 55  1  0
 31 56  1  0
 31 57  1  0
M  END
>  <template_idx>  (6)
5

>  <smiles>  (6)
C[C@@H]1CC2=c3ccccc3=NC2[C@@H](c2c(F)cc(/C=C/C(=O)O)cc2F)N1CC(C)(C)F

>  <qed>  (6)
0.7171442388755672

>  <id>  (6)
ESR1_HUMAN_300_553_0/5acc_A_rec_5acc_ke9_lig_tt_min_0.sdf

$$$$
template_6
     RDKit          3D

 53 56  0  0  0  0  0  0  0  0999 V2000
   -0.4530    0.7506   -3.7587 C   0  0  0  0  0  0  0  0  0  0  0  0
   -0.1830    0.4086   -5.0557 C   0  0  0  0  0  0  0  0  0  0  0  0
   -0.1660   -1.0834   -5.4207 C   0  0  0  0  0  0  0  0  0  0  0  0
   -0.4430   -2.1274   -4.3297 C   0  0  0  0  0  0  0  0  0  0  0  0
   -0.7100   -1.7334   -3.0697 C   0  0  0  0  0  0  0  0  0  0  0  0
   -0.9830   -2.8434   -2.0347 C   0  0  0  0  0  0  0  0  0  0  0  0
   -0.1640   -2.5664   -0.7547 C   0  0  0  0  0  0  0  0  0  0  0  0
   -0.2690   -1.1144   -0.1897 C   0  0  0  0  0  0  0  0  0  0  0  0
    0.1390   -0.0724   -1.3117 C   0  0  0  0  0  0  0  0  0  0  0  0
   -0.7600   -0.2464   -2.6137 C   0  0  0  0  0  0  0  0  0  0  0  0
    0.1430    1.4266   -0.7807 C   0  0  0  0  0  0  0  0  0  0  0  0
    0.9510    1.5846    0.5373 C   0  0  0  0  0  0  0  0  0  0  0  0
    0.4650    0.5636    1.6783 C   0  0  0  0  0  0  0  0  0  0  0  0
    0.5990   -0.9034    1.0923 C   0  0  0  0  0  0  0  0  0  0  0  0
    0.3720   -1.8144    2.3513 C   0  0  0  0  0  0  0  0  0  0  0  0
    0.9130   -0.9634    3.5283 C   0  0  0  0  0  0  0  0  0  0  0  0
    1.3860    0.3836    2.9173 C   0  0  0  0  0  0  0  0  0  0  0  0
   -1.0200    0.9606    2.1523 C   0  0  0  0  0  0  0  0  0  0  0  0
   -2.3120   -0.0204   -2.4117 C   0  0  0  0  0  0  0  0  0  0  0  0
    0.0700   -1.4324   -6.5717 O   0  0  0  0  0  0  0  0  0  0  0  0
   -1.1550    1.9506   -0.5667 O   0  0  0  0  0  0  0  0  0  0  0  0
    1.2240    1.5626    3.9423 C   0  0  0  0  0  0  0  0  0  0  0  0
    0.6140    1.3886    5.0203 O   0  0  0  0  0  0  0  0  0  0  0  0
    1.7830    2.9696    3.6573 C   0  0  0  0  0  0  0  0  0  0  0  0
    1.4460    3.9176    4.6593 O   0  0  0  0  0  0  0  0  0  0  0  0
   -0.4519    1.8218   -3.5085 H   0  0  0  0  0  0  0  0  0  0  0  0
    0.0161    1.1795   -5.8147 H   0  0  0  0  0  0  0  0  0  0  0  0
   -0.4234   -3.1989   -4.5774 H   0  0  0  0  0  0  0  0  0  0  0  0
   -2.0548   -2.8591   -1.7879 H   0  0  0  0  0  0  0  0  0  0  0  0
   -0.6891   -3.8167   -2.4546 H   0  0  0  0  0  0  0  0  0  0  0  0
   -0.5106   -3.2595    0.0259 H   0  0  0  0  0  0  0  0  0  0  0  0
    0.8905   -2.7055   -1.0352 H   0  0  0  0  0  0  0  0  0  0  0  0
   -1.3156   -0.9512    0.1069 H   0  0  0  0  0  0  0  0  0  0  0  0
    1.1781   -0.2951   -1.5956 H   0  0  0  0  0  0  0  0  0  0  0  0
    0.6268    1.9973   -1.5870 H   0  0  0  0  0  0  0  0  0  0  0  0
    2.0140    1.3974    0.3249 H   0  0  0  0  0  0  0  0  0  0  0  0
    0.7890    2.6068    0.9101 H   0  0  0  0  0  0  0  0  0  0  0  0
    1.5745   -1.1648    0.6562 H   0  0  0  0  0  0  0  0  0  0  0  0
   -0.6969   -2.0355    2.4870 H   0  0  0  0  0  0  0  0  0  0  0  0
    0.8743   -2.7893    2.2662 H   0  0  0  0  0  0  0  0  0  0  0  0
    0.1173   -0.7870    4.2670 H   0  0  0  0  0  0  0  0  0  0  0  0
    1.7372   -1.4771    4.0449 H   0  0  0  0  0  0  0  0  0  0  0  0
    2.4535    0.3846    2.6517 H   0  0  0  0  0  0  0  0  0  0  0  0
   -1.0632    0.9722    3.2514 H   0  0  0  0  0  0  0  0  0  0  0  0
   -1.2741    1.9582    1.7649 H   0  0  0  0  0  0  0  0  0  0  0  0
   -1.7381    0.2229    1.7649 H   0  0  0  0  0  0  0  0  0  0  0  0
   -2.5407    0.0129   -1.3362 H   0  0  0  0  0  0  0  0  0  0  0  0
   -2.6080    0.9303   -2.8791 H   0  0  0  0  0  0  0  0  0  0  0  0
   -2.8668   -0.8472   -2.8791 H   0  0  0  0  0  0  0  0  0  0  0  0
   -1.3267    2.0199    0.4059 H   0  0  0  0  0  0  0  0  0  0  0  0
    2.8791    2.9040    3.5923 H   0  0  0  0  0  0  0  0  0  0  0  0
    1.3338    3.3157    2.7148 H   0  0  0  0  0  0  0  0  0  0  0  0
    1.5883    3.5173    5.5535 H   0  0  0  0  0  0  0  0  0  0  0  0
  1  2  2  0
  1 10  1  0
  1 26  1  0
  2  3  1  0
  2 27  1  0
  3  4  1  0
  3 20  2  0
  4  5  2  0
  4 28  1  0
  5  6  1  0
  5 10  1  0
  6  7  1  0
  6 29  1  0
  6 30  1  0
  7  8  1  0
  7 31  1  0
  7 32  1  0
  8  9  1  0
  8 14  1  0
  8 33  1  0
  9 10  1  0
  9 11  1  0
  9 34  1  0
 10 19  1  0
 11 12  1  0
 11 21  1  0
 11 35  1  0
 12 13  1  0
 12 36  1  0
 12 37  1  0
 13 14  1  0
 13 17  1  0
 13 18  1  0
 14 15  1  0
 14 38  1  0
 15 16  1  0
 15 39  1  0
 15 40  1  0
 16 17  1  0
 16 41  1  0
 16 42  1  0
 17 22  1  0
 17 43  1  0
 18 44  1  0
 18 45  1  0
 18 46  1  0
 19 47  1  0
 19 48  1  0
 19 49  1  0
 21 50  1  0
 22 23  2  0
 22 24  1  0
 24 25  1  0
 24 51  1  0
 24 52  1  0
 25 53  1  0
M  END
>  <template_idx>  (7)
6

>  <smiles>  (7)
C[C@]12C[C@H](O)[C@H]3[C@@H](CCC4=CC(=O)C=C[C@@]43C)[C@@H]1CC[C@@H]2C(=O)CO

>  <qed>  (7)
0.8067824213998488

>  <id>  (7)
MCR_HUMAN_724_984_ligBind_0/1y9r_A_rec_2a3i_c0r_lig_tt_docked_0.sdf

$$$$
template_7
     RDKit          3D

 63 68  0  0  0  0  0  0  0  0999 V2000
   -1.9732    1.9625    0.0181 C   0  0  0  0  0  0  0  0  0  0  0  0
   -1.8272    0.7545    0.6991 C   0  0  0  0  0  0  0  0  0  0  0  0
   -2.0342    0.7025    2.0661 C   0  0  0  0  0  0  0  0  0  0  0  0
   -1.7262    1.9815   -1.3699 N   0  0  0  0  0  0  0  0  0  0  0  0
   -3.8622    3.9025    4.0841 C   0  0  0  0  0  0  0  0  0  0  0  0
   -3.3092    2.7395    4.8601 C   0  0  0  0  0  0  0  0  0  0  0  0
   -0.6792   -1.0485    3.0321 C   0  0  0  0  0  0  0  0  0  0  0  0
   -0.3022   -1.9925    1.9531 C   0  0  0  0  0  0  0  0  0  0  0  0
    0.6638   -2.8955    1.9881 C   0  0  0  0  0  0  0  0  0  0  0  0
    2.1288   -2.6705    1.9501 C   0  0  0  0  0  0  0  0  0  0  0  0
    3.4618   -1.8255    0.1611 C   0  0  0  0  0  0  0  0  0  0  0  0
    4.1448   -2.1425   -1.1589 C   0  0  0  0  0  0  0  0  0  0  0  0
    3.0798   -1.8365   -2.2219 C   0  0  0  0  0  0  0  0  0  0  0  0
    2.6258   -0.5875   -0.1559 C   0  0  0  0  0  0  0  0  0  0  0  0
   -0.7662    1.2385   -2.0619 C   0  0  0  0  0  0  0  0  0  0  0  0
    0.0748    0.3735   -4.1259 C   0  0  0  0  0  0  0  0  0  0  0  0
   -0.2932    0.4765   -5.4809 C   0  0  0  0  0  0  0  0  0  0  0  0
   -1.4552    1.2645   -5.4829 C   0  0  0  0  0  0  0  0  0  0  0  0
   -1.8482    1.6375   -4.2419 N   0  0  0  0  0  0  0  0  0  0  0  0
   -0.8782    1.0955   -3.4139 N   0  0  0  0  0  0  0  0  0  0  0  0
    0.3088    0.6095   -1.4399 C   0  0  0  0  0  0  0  0  0  0  0  0
    1.1208   -0.2405   -3.5469 N   0  0  0  0  0  0  0  0  0  0  0  0
    1.1978   -0.1675   -2.1919 C   0  0  0  0  0  0  0  0  0  0  0  0
    2.2698   -0.7905   -1.5739 N   0  0  0  0  0  0  0  0  0  0  0  0
    2.6888   -2.9315    0.6461 O   0  0  0  0  0  0  0  0  0  0  0  0
   -1.9692   -0.4505    2.8101 O   0  0  0  0  0  0  0  0  0  0  0  0
   -2.4692    1.8415    2.7661 C   0  0  0  0  0  0  0  0  0  0  0  0
   -2.6792    1.7845    4.1411 N   0  0  0  0  0  0  0  0  0  0  0  0
   -3.4492    2.6405    6.0771 O   0  0  0  0  0  0  0  0  0  0  0  0
   -3.0462    4.2775    2.8491 C   0  0  0  0  0  0  0  0  0  0  0  0
   -2.6042    3.0545    2.0811 C   0  0  0  0  0  0  0  0  0  0  0  0
   -2.3712    3.1055    0.7091 C   0  0  0  0  0  0  0  0  0  0  0  0
    2.3798   -3.0795   -2.7469 C   0  0  0  0  0  0  0  0  0  0  0  0
    3.1438   -3.6445   -3.8099 O   0  0  0  0  0  0  0  0  0  0  0  0
    0.8498   -0.6325   -7.4989 N   0  0  0  0  0  0  0  0  0  0  0  0
    0.3538   -0.1235   -6.6059 C   0  0  0  0  0  0  0  0  0  0  0  0
   -1.5476   -0.1566    0.1498 H   0  0  0  0  0  0  0  0  0  0  0  0
   -2.3162    2.6099   -1.9338 H   0  0  0  0  0  0  0  0  0  0  0  0
   -3.8986    4.7762    4.7515 H   0  0  0  0  0  0  0  0  0  0  0  0
   -4.8563    3.5980    3.7248 H   0  0  0  0  0  0  0  0  0  0  0  0
   -0.7020   -1.5940    3.9870 H   0  0  0  0  0  0  0  0  0  0  0  0
    0.0673   -0.2407    3.0478 H   0  0  0  0  0  0  0  0  0  0  0  0
   -1.2180   -2.5649    1.7442 H   0  0  0  0  0  0  0  0  0  0  0  0
    0.1459   -1.2810    1.2438 H   0  0  0  0  0  0  0  0  0  0  0  0
    0.4920   -3.4500    2.9224 H   0  0  0  0  0  0  0  0  0  0  0  0
    0.5351   -3.3136    0.9788 H   0  0  0  0  0  0  0  0  0  0  0  0
    2.3332   -1.6238    2.2199 H   0  0  0  0  0  0  0  0  0  0  0  0
    2.5951   -3.3671    2.6624 H   0  0  0  0  0  0  0  0  0  0  0  0
    4.1701   -1.6373    0.9814 H   0  0  0  0  0  0  0  0  0  0  0  0
    5.0311   -1.5067   -1.3013 H   0  0  0  0  0  0  0  0  0  0  0  0
    4.5005   -3.1822   -1.2084 H   0  0  0  0  0  0  0  0  0  0  0  0
    3.4661   -1.4621   -3.1814 H   0  0  0  0  0  0  0  0  0  0  0  0
    1.7267   -0.5435    0.4763 H   0  0  0  0  0  0  0  0  0  0  0  0
    3.1575    0.3574    0.0296 H   0  0  0  0  0  0  0  0  0  0  0  0
   -1.9919    1.5500   -6.3997 H   0  0  0  0  0  0  0  0  0  0  0  0
    0.4598    0.7232   -0.3563 H   0  0  0  0  0  0  0  0  0  0  0  0
   -2.3301    0.9570    4.6453 H   0  0  0  0  0  0  0  0  0  0  0  0
   -3.6631    4.9079    2.1918 H   0  0  0  0  0  0  0  0  0  0  0  0
   -2.1476    4.8176    3.1820 H   0  0  0  0  0  0  0  0  0  0  0  0
   -2.5021    4.0539    0.1673 H   0  0  0  0  0  0  0  0  0  0  0  0
    2.2819   -3.8152   -1.9350 H   0  0  0  0  0  0  0  0  0  0  0  0
    1.3811   -2.8072   -3.1189 H   0  0  0  0  0  0  0  0  0  0  0  0
    3.8801   -4.1890   -3.4339 H   0  0  0  0  0  0  0  0  0  0  0  0
  1  2  2  0
  1  4  1  0
  1 32  1  0
  2  3  1  0
  2 37  1  0
  3 26  1  0
  3 27  2  0
  4 15  1  0
  4 38  1  0
  5  6  1  0
  5 30  1  0
  5 39  1  0
  5 40  1  0
  6 28  1  0
  6 29  2  0
  7  8  1  0
  7 26  1  0
  7 41  1  0
  7 42  1  0
  8  9  1  0
  8 43  1  0
  8 44  1  0
  9 10  1  0
  9 45  1  0
  9 46  1  0
 10 25  1  0
 10 47  1  0
 10 48  1  0
 11 12  1  0
 11 14  1  0
 11 25  1  0
 11 49  1  0
 12 13  1  0
 12 50  1  0
 12 51  1  0
 13 24  1  0
 13 33  1  0
 13 52  1  0
 14 24  1  0
 14 53  1  0
 14 54  1  0
 15 20  1  0
 15 21  2  0
 16 17  2  0
 16 20  1  0
 16 22  1  0
 17 18  1  0
 17 36  1  0
 18 19  2  0
 18 55  1  0
 19 20  1  0
 21 23  1  0
 21 56  1  0
 22 23  2  0
 23 24  1  0
 27 28  1  0
 27 31  1  0
 28 57  1  0
 30 31  1  0
 30 58  1  0
 30 59  1  0
 31 32  2  0
 32 60  1  0
 33 34  1  0
 33 61  1  0
 33 62  1  0
 34 63  1  0
 35 36  3  0
M  END
>  <template_idx>  (8)
7

>  <smiles>  (8)
N#Cc1cnn2c3cc(nc12)N1C[C@H](C[C@H]1CO)OCCCCOc1cc(cc2c1NC(=O)CC2)N3

>  <qed>  (8)
0.4703144175000822

>  <id>  (8)
CSK21_HUMAN_1_335_ATPsite_0/3owj_A_rec_5n1v_8gq_lig_tt_min_0.sdf

$$$$
template_8
     RDKit          3D

 37 39  0  0  0  0  0  0  0  0999 V2000
   -0.8726   -1.4573   -0.5470 C   0  0  0  0  0  0  0  0  0  0  0  0
   -0.2776   -0.4313    0.2000 O   0  0  0  0  0  0  0  0  0  0  0  0
   -1.2386   -0.8853   -1.9250 C   0  0  0  0  0  0  0  0  0  0  0  0
   -2.6496   -0.6273   -1.9660 O   0  0  0  0  0  0  0  0  0  0  0  0
   -0.5616    0.4627   -1.8850 C   0  0  0  0  0  0  0  0  0  0  0  0
   -0.6486    0.7947   -0.4140 C   0  0  0  0  0  0  0  0  0  0  0  0
    0.3664    1.8837   -0.0190 N   0  0  0  0  0  0  0  0  0  0  0  0
    1.2934    2.4827   -0.7660 C   0  0  0  0  0  0  0  0  0  0  0  0
    1.9324    3.4197   -0.0330 N   0  0  0  0  0  0  0  0  0  0  0  0
    1.4144    3.4357    1.2070 C   0  0  0  0  0  0  0  0  0  0  0  0
    1.6644    4.1567    2.3920 C   0  0  0  0  0  0  0  0  0  0  0  0
    2.5184    5.0497    2.5570 O   0  0  0  0  0  0  0  0  0  0  0  0
    0.9004    3.8367    3.5080 N   0  0  0  0  0  0  0  0  0  0  0  0
   -0.0846    2.8857    3.4970 C   0  0  0  0  0  0  0  0  0  0  0  0
   -0.7586    2.6417    4.6170 N   0  0  0  0  0  0  0  0  0  0  0  0
   -0.3306    2.1657    2.3340 N   0  0  0  0  0  0  0  0  0  0  0  0
    0.4214    2.4427    1.1960 C   0  0  0  0  0  0  0  0  0  0  0  0
    0.1794   -2.5543   -0.5900 C   0  0  0  0  0  0  0  0  0  0  0  0
   -0.3186   -3.5793   -1.3680 O   0  0  0  0  0  0  0  0  0  0  0  0
    0.6544   -4.3463   -2.3700 P   0  0  0  0  0  0  0  0  0  0  0  0
   -0.0626   -5.7083   -2.5090 O   0  0  0  0  0  0  0  0  0  0  0  0
    2.0924   -4.4493   -1.9300 O   0  0  0  0  0  0  0  0  0  0  0  0
    0.5054   -3.6153   -3.7990 O   0  0  0  0  0  0  0  0  0  0  0  0
   -1.8057   -1.8641   -0.1301 H   0  0  0  0  0  0  0  0  0  0  0  0
   -0.9610   -1.5416   -2.7630 H   0  0  0  0  0  0  0  0  0  0  0  0
   -3.0003   -0.5632   -1.0424 H   0  0  0  0  0  0  0  0  0  0  0  0
    0.4835    0.3985   -2.2221 H   0  0  0  0  0  0  0  0  0  0  0  0
   -1.0182    1.2156   -2.5443 H   0  0  0  0  0  0  0  0  0  0  0  0
   -1.6393    1.1755   -0.1251 H   0  0  0  0  0  0  0  0  0  0  0  0
    1.5058    2.2492   -1.8197 H   0  0  0  0  0  0  0  0  0  0  0  0
   -1.5026    1.9294    4.6256 H   0  0  0  0  0  0  0  0  0  0  0  0
   -0.5367    3.1649    5.4760 H   0  0  0  0  0  0  0  0  0  0  0  0
   -1.0589    1.4376    2.3145 H   0  0  0  0  0  0  0  0  0  0  0  0
    1.1089   -2.1657   -1.0317 H   0  0  0  0  0  0  0  0  0  0  0  0
    0.4045   -2.9138    0.4249 H   0  0  0  0  0  0  0  0  0  0  0  0
   -0.2548   -6.0734   -1.6091 H   0  0  0  0  0  0  0  0  0  0  0  0
    2.1355   -4.4524   -0.9409 H   0  0  0  0  0  0  0  0  0  0  0  0
  1  2  1  0
  1  3  1  0
  1 18  1  0
  1 24  1  0
  2  6  1  0
  3  4  1  0
  3  5  1  0
  3 25  1  0
  4 26  1  0
  5  6  1  0
  5 27  1  0
  5 28  1  0
  6  7  1  0
  6 29  1  0
  7  8  1  0
  7 17  1  0
  8  9  2  0
  8 30  1  0
  9 10  1  0
 10 11  1  0
 10 17  2  0
 11 12  2  0
 11 13  1  0
 13 14  2  0
 14 15  1  0
 14 16  1  0
 15 31  1  0
 15 32  1  0
 16 17  1  0
 16 33  1  0
 18 19  1  0
 18 34  1  0
 18 35  1  0
 19 20  1  0
 20 21  1  0
 20 22  1  0
 20 23  2  0
 21 36  1  0
 22 37  1  0
M  END
>  <template_idx>  (9)
8

>  <smiles>  (9)
Nc1nc(=O)c2ncn([C@H]3C[C@H](O)[C@@H](COP(=O)(O)O)O3)c2[nH]1

>  <qed>  (9)
0.40564340050586223

>  <id>  (9)
NT5M_HUMAN_31_228_0/2jau_A_rec_1z4p_dgp_lig_tt_min_0.sdf

$$$$
template_9
     RDKit          3D

 63 67  0  0  0  0  0  0  0  0999 V2000
    1.4635    2.7683    3.0538 C   0  0  0  0  0  0  0  0  0  0  0  0
    0.9105    4.0073    2.6668 C   0  0  0  0  0  0  0  0  0  0  0  0
   -0.3805    4.0623    2.1128 C   0  0  0  0  0  0  0  0  0  0  0  0
   -1.1185    2.8803    1.9348 C   0  0  0  0  0  0  0  0  0  0  0  0
    0.7435    1.5613    2.8878 C   0  0  0  0  0  0  0  0  0  0  0  0
   -0.5625    1.6443    2.3148 C   0  0  0  0  0  0  0  0  0  0  0  0
   -0.0865   -0.5197    2.7778 C   0  0  0  0  0  0  0  0  0  0  0  0
    1.0195    0.1843    3.1668 C   0  0  0  0  0  0  0  0  0  0  0  0
   -0.9135    5.2513    1.7488 F   0  0  0  0  0  0  0  0  0  0  0  0
   -1.0465    0.3413    2.2668 N   0  0  0  0  0  0  0  0  0  0  0  0
   -3.3215   -0.4837    2.6408 C   0  0  0  0  0  0  0  0  0  0  0  0
   -4.5375   -0.9027    2.0778 C   0  0  0  0  0  0  0  0  0  0  0  0
   -3.7745   -0.5477   -0.0882 C   0  0  0  0  0  0  0  0  0  0  0  0
   -2.5195   -0.1197    0.3838 C   0  0  0  0  0  0  0  0  0  0  0  0
   -2.2945   -0.0847    1.7688 C   0  0  0  0  0  0  0  0  0  0  0  0
   -4.7585   -0.9347    0.7488 N   0  0  0  0  0  0  0  0  0  0  0  0
   -4.0695   -0.6107   -1.5322 C   0  0  0  0  0  0  0  0  0  0  0  0
   -3.0725   -0.2827   -2.4772 C   0  0  0  0  0  0  0  0  0  0  0  0
   -3.3125   -0.3397   -3.8632 C   0  0  0  0  0  0  0  0  0  0  0  0
   -4.5905   -0.7427   -4.3102 C   0  0  0  0  0  0  0  0  0  0  0  0
   -5.5975   -1.0797   -3.3862 C   0  0  0  0  0  0  0  0  0  0  0  0
   -5.3385   -1.0147   -2.0032 C   0  0  0  0  0  0  0  0  0  0  0  0
   -2.2675    0.0053   -4.6932 O   0  0  0  0  0  0  0  0  0  0  0  0
   -2.5455    0.3273   -6.0472 C   0  0  0  0  0  0  0  0  0  0  0  0
    2.2525   -0.4097    3.7668 C   0  0  0  0  0  0  0  0  0  0  0  0
    3.5195   -0.0457    3.1598 N   0  0  0  0  0  0  0  0  0  0  0  0
    3.9245   -1.0877    2.2278 C   0  0  0  0  0  0  0  0  0  0  0  0
    3.5585   -0.6827    0.7928 C   0  0  0  0  0  0  0  0  0  0  0  0
    4.8295   -0.3317    0.0028 C   0  0  0  0  0  0  0  0  0  0  0  0
    4.5195    0.0333   -1.4572 C   0  0  0  0  0  0  0  0  0  0  0  0
    3.7755   -1.1117   -2.1572 C   0  0  0  0  0  0  0  0  0  0  0  0
    2.4895   -1.4497   -1.3932 C   0  0  0  0  0  0  0  0  0  0  0  0
    2.7975   -1.8117    0.0688 C   0  0  0  0  0  0  0  0  0  0  0  0
    2.4720    2.7400    3.4922 H   0  0  0  0  0  0  0  0  0  0  0  0
    1.4908    4.9324    2.7989 H   0  0  0  0  0  0  0  0  0  0  0  0
   -2.1280    2.9206    1.4997 H   0  0  0  0  0  0  0  0  0  0  0  0
   -0.1986   -1.6110    2.8585 H   0  0  0  0  0  0  0  0  0  0  0  0
   -3.1772   -0.4682    3.7312 H   0  0  0  0  0  0  0  0  0  0  0  0
   -5.3467   -1.2193    2.7523 H   0  0  0  0  0  0  0  0  0  0  0  0
   -1.7295    0.1819   -0.3198 H   0  0  0  0  0  0  0  0  0  0  0  0
   -2.0792    0.0265   -2.1197 H   0  0  0  0  0  0  0  0  0  0  0  0
   -4.8004   -0.7935   -5.3888 H   0  0  0  0  0  0  0  0  0  0  0  0
   -6.5886   -1.3944   -3.7449 H   0  0  0  0  0  0  0  0  0  0  0  0
   -6.1290   -1.2800   -1.2858 H   0  0  0  0  0  0  0  0  0  0  0  0
   -3.2639    1.1594   -6.0861 H   0  0  0  0  0  0  0  0  0  0  0  0
   -1.6142    0.6230   -6.5524 H   0  0  0  0  0  0  0  0  0  0  0  0
   -2.9739   -0.5509   -6.5524 H   0  0  0  0  0  0  0  0  0  0  0  0
    2.2894   -0.1025    4.8224 H   0  0  0  0  0  0  0  0  0  0  0  0
    2.1573   -1.4933    3.6034 H   0  0  0  0  0  0  0  0  0  0  0  0
    3.4153    0.8459    2.6547 H   0  0  0  0  0  0  0  0  0  0  0  0
    5.0122   -1.2359    2.2979 H   0  0  0  0  0  0  0  0  0  0  0  0
    3.4025   -2.0217    2.4827 H   0  0  0  0  0  0  0  0  0  0  0  0
    2.9022    0.1984    0.8488 H   0  0  0  0  0  0  0  0  0  0  0  0
    5.3222    0.5251    0.4858 H   0  0  0  0  0  0  0  0  0  0  0  0
    5.4821   -1.2172   -0.0004 H   0  0  0  0  0  0  0  0  0  0  0  0
    3.8927    0.9371   -1.4780 H   0  0  0  0  0  0  0  0  0  0  0  0
    5.4675    0.2136   -1.9852 H   0  0  0  0  0  0  0  0  0  0  0  0
    3.5199   -0.8062   -3.1825 H   0  0  0  0  0  0  0  0  0  0  0  0
    4.4236   -2.0001   -2.1818 H   0  0  0  0  0  0  0  0  0  0  0  0
    1.8186   -0.5782   -1.4145 H   0  0  0  0  0  0  0  0  0  0  0  0
    2.0118   -2.3150   -1.8758 H   0  0  0  0  0  0  0  0  0  0  0  0
    3.4123   -2.7237    0.0874 H   0  0  0  0  0  0  0  0  0  0  0  0
    1.8414   -1.9671    0.5901 H   0  0  0  0  0  0  0  0  0  0  0  0
  1  2  2  0
  1  5  1  0
  1 34  1  0
  2  3  1  0
  2 35  1  0
  3  4  2  0
  3  9  1  0
  4  6  1  0
  4 36  1  0
  5  6  2  0
  5  8  1  0
  6 10  1  0
  7  8  2  0
  7 10  1  0
  7 37  1  0
  8 25  1  0
 10 15  1  0
 11 12  2  0
 11 15  1  0
 11 38  1  0
 12 16  1  0
 12 39  1  0
 13 14  1  0
 13 16  2  0
 13 17  1  0
 14 15  2  0
 14 40  1  0
 17 18  2  0
 17 22  1  0
 18 19  1  0
 18 41  1  0
 19 20  2  0
 19 23  1  0
 20 21  1  0
 20 42  1  0
 21 22  2  0
 21 43  1  0
 22 44  1  0
 23 24  1  0
 24 45  1  0
 24 46  1  0
 24 47  1  0
 25 26  1  0
 25 48  1  0
 25 49  1  0
 26 27  1  0
 26 50  1  0
 27 28  1  0
 27 51  1  0
 27 52  1  0
 28 29  1  0
 28 33  1  0
 28 53  1  0
 29 30  1  0
 29 54  1  0
 29 55  1  0
 30 31  1  0
 30 56  1  0
 30 57  1  0
 31 32  1  0
 31 58  1  0
 31 59  1  0
 32 33  1  0
 32 60  1  0
 32 61  1  0
 33 62  1  0
 33 63  1  0
M  END
>  <template_idx>  (10)
9

>  <smiles>  (10)
COc1cccc(-c2cc(-n3cc(CNCC4CCCCC4)c4ccc(F)cc43)ccn2)c1

>  <qed>  (10)
0.35384276444727153

>  <id>  (10)
WNK1_HUMAN_202_483_0/5tf9_A_rec_5wdy_a6s_lig_tt_min_0.sdf

$$$$
